<?xml version="1.0" encoding="UTF-8"?>

<!-- generated on 2023-01-31 22:43:48 by Eclipse SUMO netconvert Version 1.15.0
<configuration xmlns:xsi="http://www.w3.org/2001/XMLSchema-instance" xsi:noNamespaceSchemaLocation="http://sumo.dlr.de/xsd/netconvertConfiguration.xsd">

    <input>
        <node-files value="customNetwork2.nod.xml"/>
        <edge-files value="customNetwork2.edg.xml"/>
        <connection-files value="customNetwork2.con.xml"/>
        <tllogic-files value="customNetwork2.tll.xml"/>
    </input>

    <output>
        <output-file value="customNetwork2.net.xml"/>
    </output>

</configuration>
-->

<net version="1.9" junctionCornerDetail="5" limitTurnSpeed="5.50" xmlns:xsi="http://www.w3.org/2001/XMLSchema-instance" xsi:noNamespaceSchemaLocation="http://sumo.dlr.de/xsd/net_file.xsd">

    <location netOffset="0.00,0.00" convBoundary="0.00,0.00,17000.00,0.00" origBoundary="-10000000000.00,-10000000000.00,10000000000.00,10000000000.00" projParameter="!"/>

    <edge id=":J1_0" function="internal">
        <lane id=":J1_0_0" index="0" speed="26.95" length="0.10" shape="1136.00,1.60 1136.00,1.60"/>
    </edge>
    <edge id=":J1_1" function="internal">
        <lane id=":J1_1_0" index="0" speed="26.95" length="0.10" shape="1136.00,-1.60 1136.00,-1.60"/>
    </edge>
    <edge id=":J10_0" function="internal">
        <lane id=":J10_0_0" index="0" speed="40.00" length="0.10" shape="10150.00,1.60 10150.00,1.60"/>
    </edge>
    <edge id=":J10_1" function="internal">
        <lane id=":J10_1_0" index="0" speed="40.00" length="0.10" shape="10150.00,-1.60 10150.00,-1.60"/>
    </edge>
    <edge id=":J11_0" function="internal">
        <lane id=":J11_0_0" index="0" speed="40.00" length="0.10" shape="10988.00,1.60 10988.00,1.60"/>
    </edge>
    <edge id=":J11_1" function="internal">
        <lane id=":J11_1_0" index="0" speed="40.00" length="0.10" shape="10988.00,-1.60 10988.00,-1.60"/>
    </edge>
    <edge id=":J12_0" function="internal">
        <lane id=":J12_0_0" index="0" speed="40.00" length="0.10" shape="11849.00,1.60 11849.00,1.60"/>
    </edge>
    <edge id=":J12_1" function="internal">
        <lane id=":J12_1_0" index="0" speed="40.00" length="0.10" shape="11849.00,-1.60 11849.00,-1.60"/>
    </edge>
    <edge id=":J13_0" function="internal">
        <lane id=":J13_0_0" index="0" speed="40.00" length="0.10" shape="12834.00,1.60 12834.00,1.60"/>
    </edge>
    <edge id=":J13_1" function="internal">
        <lane id=":J13_1_0" index="0" speed="40.00" length="0.10" shape="12834.00,-1.60 12834.00,-1.60"/>
    </edge>
    <edge id=":J14_0" function="internal">
        <lane id=":J14_0_0" index="0" speed="40.00" length="0.10" shape="14190.00,1.60 14190.00,1.60"/>
    </edge>
    <edge id=":J14_1" function="internal">
        <lane id=":J14_1_0" index="0" speed="40.00" length="0.10" shape="14190.00,-1.60 14190.00,-1.60"/>
    </edge>
    <edge id=":J15_0" function="internal">
        <lane id=":J15_0_0" index="0" speed="40.00" length="0.10" shape="15181.00,1.60 15181.00,1.60"/>
    </edge>
    <edge id=":J15_1" function="internal">
        <lane id=":J15_1_0" index="0" speed="40.00" length="0.10" shape="15181.00,-1.60 15181.00,-1.60"/>
    </edge>
    <edge id=":J16_0" function="internal">
        <lane id=":J16_0_0" index="0" speed="40.00" length="0.10" shape="16189.00,1.60 16189.00,1.60"/>
    </edge>
    <edge id=":J16_1" function="internal">
        <lane id=":J16_1_0" index="0" speed="40.00" length="0.10" shape="16189.00,-1.60 16189.00,-1.60"/>
    </edge>
    <edge id=":J2_0" function="internal">
        <lane id=":J2_0_0" index="0" speed="13.89" length="0.10" shape="2086.00,1.60 2086.00,1.60"/>
    </edge>
    <edge id=":J2_1" function="internal">
        <lane id=":J2_1_0" index="0" speed="13.89" length="0.10" shape="2086.00,-1.60 2086.00,-1.60"/>
    </edge>
    <edge id=":J3_0" function="internal">
        <lane id=":J3_0_0" index="0" speed="26.95" length="0.10" shape="3136.00,1.60 3136.00,1.60"/>
    </edge>
    <edge id=":J3_1" function="internal">
        <lane id=":J3_1_0" index="0" speed="26.95" length="0.10" shape="3136.00,-1.60 3136.00,-1.60"/>
    </edge>
    <edge id=":J4_0" function="internal">
        <lane id=":J4_0_0" index="0" speed="40.00" length="0.10" shape="4067.00,1.60 4067.00,1.60"/>
    </edge>
    <edge id=":J4_1" function="internal">
        <lane id=":J4_1_0" index="0" speed="40.00" length="0.10" shape="4067.00,-1.60 4067.00,-1.60"/>
    </edge>
    <edge id=":J5_0" function="internal">
        <lane id=":J5_0_0" index="0" speed="40.00" length="0.10" shape="5053.00,1.60 5053.00,1.60"/>
    </edge>
    <edge id=":J5_1" function="internal">
        <lane id=":J5_1_0" index="0" speed="40.00" length="0.10" shape="5053.00,-1.60 5053.00,-1.60"/>
    </edge>
    <edge id=":J6_0" function="internal">
        <lane id=":J6_0_0" index="0" speed="40.00" length="0.10" shape="5835.00,1.60 5835.00,1.60"/>
    </edge>
    <edge id=":J6_1" function="internal">
        <lane id=":J6_1_0" index="0" speed="40.00" length="0.10" shape="5835.00,-1.60 5835.00,-1.60"/>
    </edge>
    <edge id=":J7_0" function="internal">
        <lane id=":J7_0_0" index="0" speed="40.00" length="0.10" shape="7152.00,1.60 7152.00,1.60"/>
    </edge>
    <edge id=":J7_1" function="internal">
        <lane id=":J7_1_0" index="0" speed="40.00" length="0.10" shape="7152.00,-1.60 7152.00,-1.60"/>
    </edge>
    <edge id=":J8_0" function="internal">
        <lane id=":J8_0_0" index="0" speed="40.00" length="0.10" shape="8130.00,1.60 8130.00,1.60"/>
    </edge>
    <edge id=":J8_1" function="internal">
        <lane id=":J8_1_0" index="0" speed="40.00" length="0.10" shape="8130.00,-1.60 8130.00,-1.60"/>
    </edge>
    <edge id=":J9_0" function="internal">
        <lane id=":J9_0_0" index="0" speed="40.00" length="0.10" shape="8976.00,1.60 8976.00,1.60"/>
    </edge>
    <edge id=":J9_1" function="internal">
        <lane id=":J9_1_0" index="0" speed="40.00" length="0.10" shape="8976.00,-1.60 8976.00,-1.60"/>
    </edge>

    <edge id="-E0" from="J1" to="J0" priority="-1">
        <lane id="-E0_0" index="0" speed="40.00" length="1136.00" shape="1136.00,1.60 0.00,1.60"/>
    </edge>
    <edge id="-E1" from="J2" to="J1" priority="-1">
        <lane id="-E1_0" index="0" speed="13.89" length="950.00" shape="2086.00,1.60 1136.00,1.60"/>
    </edge>
    <edge id="-E10" from="J11" to="J10" priority="-1">
        <lane id="-E10_0" index="0" speed="40.00" length="838.00" shape="10988.00,1.60 10150.00,1.60"/>
    </edge>
    <edge id="-E11" from="J12" to="J11" priority="-1">
        <lane id="-E11_0" index="0" speed="40.00" length="861.00" shape="11849.00,1.60 10988.00,1.60"/>
    </edge>
    <edge id="-E12" from="J13" to="J12" priority="-1">
        <lane id="-E12_0" index="0" speed="40.00" length="985.00" shape="12834.00,1.60 11849.00,1.60"/>
    </edge>
    <edge id="-E13" from="J14" to="J13" priority="-1">
        <lane id="-E13_0" index="0" speed="40.00" length="1356.00" shape="14190.00,1.60 12834.00,1.60"/>
    </edge>
    <edge id="-E14" from="J15" to="J14" priority="-1">
        <lane id="-E14_0" index="0" speed="40.00" length="991.00" shape="15181.00,1.60 14190.00,1.60"/>
    </edge>
    <edge id="-E15" from="J16" to="J15" priority="-1">
        <lane id="-E15_0" index="0" speed="40.00" length="1008.00" shape="16189.00,1.60 15181.00,1.60"/>
    </edge>
    <edge id="-E16" from="J17" to="J16" priority="-1">
        <lane id="-E16_0" index="0" speed="40.00" length="811.00" shape="17000.00,1.60 16189.00,1.60"/>
    </edge>
    <edge id="-E2" from="J3" to="J2" priority="-1">
        <lane id="-E2_0" index="0" speed="13.89" length="1050.00" shape="3136.00,1.60 2086.00,1.60"/>
    </edge>
    <edge id="-E3" from="J4" to="J3" priority="-1">
        <lane id="-E3_0" index="0" speed="40.00" length="931.00" shape="4067.00,1.60 3136.00,1.60"/>
    </edge>
    <edge id="-E4" from="J5" to="J4" priority="-1">
        <lane id="-E4_0" index="0" speed="40.00" length="986.00" shape="5053.00,1.60 4067.00,1.60"/>
    </edge>
    <edge id="-E5" from="J6" to="J5" priority="-1">
        <lane id="-E5_0" index="0" speed="40.00" length="782.00" shape="5835.00,1.60 5053.00,1.60"/>
    </edge>
    <edge id="-E6" from="J7" to="J6" priority="-1">
        <lane id="-E6_0" index="0" speed="40.00" length="1317.00" shape="7152.00,1.60 5835.00,1.60"/>
    </edge>
    <edge id="-E7" from="J8" to="J7" priority="-1">
        <lane id="-E7_0" index="0" speed="40.00" length="978.00" shape="8130.00,1.60 7152.00,1.60"/>
    </edge>
    <edge id="-E8" from="J9" to="J8" priority="-1">
        <lane id="-E8_0" index="0" speed="40.00" length="846.00" shape="8976.00,1.60 8130.00,1.60"/>
    </edge>
    <edge id="-E9" from="J10" to="J9" priority="-1">
        <lane id="-E9_0" index="0" speed="40.00" length="1174.00" shape="10150.00,1.60 8976.00,1.60"/>
    </edge>
    <edge id="E0" from="J0" to="J1" priority="-1">
        <lane id="E0_0" index="0" speed="40.00" length="1136.00" shape="0.00,-1.60 1136.00,-1.60"/>
    </edge>
    <edge id="E1" from="J1" to="J2" priority="-1">
        <lane id="E1_0" index="0" speed="13.89" length="950.00" shape="1136.00,-1.60 2086.00,-1.60"/>
    </edge>
    <edge id="E10" from="J10" to="J11" priority="-1">
        <lane id="E10_0" index="0" speed="40.00" length="838.00" shape="10150.00,-1.60 10988.00,-1.60"/>
    </edge>
    <edge id="E11" from="J11" to="J12" priority="-1">
        <lane id="E11_0" index="0" speed="40.00" length="861.00" shape="10988.00,-1.60 11849.00,-1.60"/>
    </edge>
    <edge id="E12" from="J12" to="J13" priority="-1">
        <lane id="E12_0" index="0" speed="40.00" length="985.00" shape="11849.00,-1.60 12834.00,-1.60"/>
    </edge>
    <edge id="E13" from="J13" to="J14" priority="-1">
        <lane id="E13_0" index="0" speed="40.00" length="1356.00" shape="12834.00,-1.60 14190.00,-1.60"/>
    </edge>
    <edge id="E14" from="J14" to="J15" priority="-1">
        <lane id="E14_0" index="0" speed="40.00" length="991.00" shape="14190.00,-1.60 15181.00,-1.60"/>
    </edge>
    <edge id="E15" from="J15" to="J16" priority="-1">
        <lane id="E15_0" index="0" speed="40.00" length="1008.00" shape="15181.00,-1.60 16189.00,-1.60"/>
    </edge>
    <edge id="E16" from="J16" to="J17" priority="-1">
        <lane id="E16_0" index="0" speed="40.00" length="811.00" shape="16189.00,-1.60 17000.00,-1.60"/>
    </edge>
    <edge id="E2" from="J2" to="J3" priority="-1">
        <lane id="E2_0" index="0" speed="13.89" length="1050.00" shape="2086.00,-1.60 3136.00,-1.60"/>
    </edge>
    <edge id="E3" from="J3" to="J4" priority="-1">
        <lane id="E3_0" index="0" speed="40.00" length="931.00" shape="3136.00,-1.60 4067.00,-1.60"/>
    </edge>
    <edge id="E4" from="J4" to="J5" priority="-1">
        <lane id="E4_0" index="0" speed="40.00" length="986.00" shape="4067.00,-1.60 5053.00,-1.60"/>
    </edge>
    <edge id="E5" from="J5" to="J6" priority="-1">
        <lane id="E5_0" index="0" speed="40.00" length="782.00" shape="5053.00,-1.60 5835.00,-1.60"/>
    </edge>
    <edge id="E6" from="J6" to="J7" priority="-1">
        <lane id="E6_0" index="0" speed="40.00" length="1317.00" shape="5835.00,-1.60 7152.00,-1.60"/>
    </edge>
    <edge id="E7" from="J7" to="J8" priority="-1">
        <lane id="E7_0" index="0" speed="40.00" length="978.00" shape="7152.00,-1.60 8130.00,-1.60"/>
    </edge>
    <edge id="E8" from="J8" to="J9" priority="-1">
        <lane id="E8_0" index="0" speed="40.00" length="846.00" shape="8130.00,-1.60 8976.00,-1.60"/>
    </edge>
    <edge id="E9" from="J9" to="J10" priority="-1">
        <lane id="E9_0" index="0" speed="40.00" length="1174.00" shape="8976.00,-1.60 10150.00,-1.60"/>
    </edge>

    <tlLogic id="J1" type="static" programID="0" offset="34">
        <phase duration="38" state="GG"/>
        <phase duration="0.10"  state="yy"/>
        <phase duration="22" state="rr"/>
    </tlLogic>
    <tlLogic id="J10" type="static" programID="0" offset="35">
        <phase duration="47" state="GG"/>
        <phase duration="0.10"  state="yy"/>
        <phase duration="13" state="rr"/>
    </tlLogic>
    <tlLogic id="J11" type="static" programID="0" offset="32">
        <phase duration="39" state="GG"/>
        <phase duration="0.10"  state="yy"/>
        <phase duration="21" state="rr"/>
    </tlLogic>
    <tlLogic id="J12" type="static" programID="0" offset="4">
        <phase duration="50" state="GG"/>
        <phase duration="0.10"  state="yy"/>
        <phase duration="10" state="rr"/>
    </tlLogic>
    <tlLogic id="J13" type="static" programID="0" offset="15">
        <phase duration="30" state="GG"/>
        <phase duration="0.10"  state="yy"/>
        <phase duration="30" state="rr"/>
    </tlLogic>
    <tlLogic id="J14" type="static" programID="0" offset="35">
        <phase duration="13" state="GG"/>
        <phase duration="0.10"  state="yy"/>
        <phase duration="47" state="rr"/>
    </tlLogic>
    <tlLogic id="J15" type="static" programID="0" offset="10">
        <phase duration="34" state="GG"/>
        <phase duration="0.10"  state="yy"/>
        <phase duration="26" state="rr"/>
    </tlLogic>
    <tlLogic id="J16" type="static" programID="0" offset="22">
        <phase duration="46" state="GG"/>
        <phase duration="0.10"  state="yy"/>
        <phase duration="14" state="rr"/>
    </tlLogic>
    <tlLogic id="J2" type="static" programID="0" offset="4">
        <phase duration="11" state="GG"/>
        <phase duration="0.10"  state="yy"/>
        <phase duration="49" state="rr"/>
    </tlLogic>
    <tlLogic id="J3" type="static" programID="0" offset="11">
        <phase duration="17" state="GG"/>
        <phase duration="0.10"  state="yy"/>
        <phase duration="43" state="rr"/>
    </tlLogic>
    <tlLogic id="J4" type="static" programID="0" offset="43">
        <phase duration="43" state="GG"/>
        <phase duration="0.10"  state="yy"/>
        <phase duration="17" state="rr"/>
    </tlLogic>
    <tlLogic id="J5" type="static" programID="0" offset="51">
        <phase duration="14" state="GG"/>
        <phase duration="0.10"  state="yy"/>
        <phase duration="46" state="rr"/>
    </tlLogic>
    <tlLogic id="J6" type="static" programID="0" offset="41">
        <phase duration="45" state="GG"/>
        <phase duration="0.10"  state="yy"/>
        <phase duration="15" state="rr"/>
    </tlLogic>
    <tlLogic id="J7" type="static" programID="0" offset="28">
        <phase duration="46" state="GG"/>
        <phase duration="0.10"  state="yy"/>
        <phase duration="14" state="rr"/>
    </tlLogic>
    <tlLogic id="J8" type="static" programID="0" offset="59">
        <phase duration="12" state="GG"/>
        <phase duration="0.10"  state="yy"/>
        <phase duration="48" state="rr"/>
    </tlLogic>
    <tlLogic id="J9" type="static" programID="0" offset="25">
        <phase duration="45" state="GG"/>
        <phase duration="0.10"  state="yy"/>
        <phase duration="15" state="rr"/>
    </tlLogic>

    <junction id="J0" type="dead_end" x="0.00" y="0.00" incLanes="-E0_0" intLanes="" shape="0.00,0.00 0.00,3.20 0.00,0.00"/>
    <junction id="J1" type="traffic_light" x="1136.00" y="0.00" incLanes="-E1_0 E0_0" intLanes=":J1_0_0 :J1_1_0" shape="1136.00,3.20 1136.00,-3.20 1136.00,3.20">
        <request index="0" response="00" foes="00" cont="0"/>
        <request index="1" response="00" foes="00" cont="0"/>
    </junction>
    <junction id="J10" type="traffic_light" x="10150.00" y="0.00" incLanes="-E10_0 E9_0" intLanes=":J10_0_0 :J10_1_0" shape="10150.00,3.20 10150.00,-3.20 10150.00,3.20">
        <request index="0" response="00" foes="00" cont="0"/>
        <request index="1" response="00" foes="00" cont="0"/>
    </junction>
    <junction id="J11" type="traffic_light" x="10988.00" y="0.00" incLanes="-E11_0 E10_0" intLanes=":J11_0_0 :J11_1_0" shape="10988.00,3.20 10988.00,-3.20 10988.00,3.20">
        <request index="0" response="00" foes="00" cont="0"/>
        <request index="1" response="00" foes="00" cont="0"/>
    </junction>
    <junction id="J12" type="traffic_light" x="11849.00" y="0.00" incLanes="-E12_0 E11_0" intLanes=":J12_0_0 :J12_1_0" shape="11849.00,3.20 11849.00,-3.20 11849.00,3.20">
        <request index="0" response="00" foes="00" cont="0"/>
        <request index="1" response="00" foes="00" cont="0"/>
    </junction>
    <junction id="J13" type="traffic_light" x="12834.00" y="0.00" incLanes="-E13_0 E12_0" intLanes=":J13_0_0 :J13_1_0" shape="12834.00,3.20 12834.00,-3.20 12834.00,3.20">
        <request index="0" response="00" foes="00" cont="0"/>
        <request index="1" response="00" foes="00" cont="0"/>
    </junction>
    <junction id="J14" type="traffic_light" x="14190.00" y="0.00" incLanes="-E14_0 E13_0" intLanes=":J14_0_0 :J14_1_0" shape="14190.00,3.20 14190.00,-3.20 14190.00,3.20">
        <request index="0" response="00" foes="00" cont="0"/>
        <request index="1" response="00" foes="00" cont="0"/>
    </junction>
    <junction id="J15" type="traffic_light" x="15181.00" y="0.00" incLanes="-E15_0 E14_0" intLanes=":J15_0_0 :J15_1_0" shape="15181.00,3.20 15181.00,-3.20 15181.00,3.20">
        <request index="0" response="00" foes="00" cont="0"/>
        <request index="1" response="00" foes="00" cont="0"/>
    </junction>
    <junction id="J16" type="traffic_light" x="16189.00" y="0.00" incLanes="-E16_0 E15_0" intLanes=":J16_0_0 :J16_1_0" shape="16189.00,3.20 16189.00,-3.20 16189.00,3.20">
        <request index="0" response="00" foes="00" cont="0"/>
        <request index="1" response="00" foes="00" cont="0"/>
    </junction>
    <junction id="J17" type="dead_end" x="17000.00" y="0.00" incLanes="E16_0" intLanes="" shape="17000.00,0.00 17000.00,-3.20 17000.00,0.00"/>
    <junction id="J2" type="traffic_light" x="2086.00" y="0.00" incLanes="-E2_0 E1_0" intLanes=":J2_0_0 :J2_1_0" shape="2086.00,3.20 2086.00,-3.20 2086.00,3.20">
        <request index="0" response="00" foes="00" cont="0"/>
        <request index="1" response="00" foes="00" cont="0"/>
    </junction>
    <junction id="J3" type="traffic_light" x="3136.00" y="0.00" incLanes="-E3_0 E2_0" intLanes=":J3_0_0 :J3_1_0" shape="3136.00,3.20 3136.00,-3.20 3136.00,3.20">
        <request index="0" response="00" foes="00" cont="0"/>
        <request index="1" response="00" foes="00" cont="0"/>
    </junction>
    <junction id="J4" type="traffic_light" x="4067.00" y="0.00" incLanes="-E4_0 E3_0" intLanes=":J4_0_0 :J4_1_0" shape="4067.00,3.20 4067.00,-3.20 4067.00,3.20">
        <request index="0" response="00" foes="00" cont="0"/>
        <request index="1" response="00" foes="00" cont="0"/>
    </junction>
    <junction id="J5" type="traffic_light" x="5053.00" y="0.00" incLanes="-E5_0 E4_0" intLanes=":J5_0_0 :J5_1_0" shape="5053.00,3.20 5053.00,-3.20 5053.00,3.20">
        <request index="0" response="00" foes="00" cont="0"/>
        <request index="1" response="00" foes="00" cont="0"/>
    </junction>
    <junction id="J6" type="traffic_light" x="5835.00" y="0.00" incLanes="-E6_0 E5_0" intLanes=":J6_0_0 :J6_1_0" shape="5835.00,3.20 5835.00,-3.20 5835.00,3.20">
        <request index="0" response="00" foes="00" cont="0"/>
        <request index="1" response="00" foes="00" cont="0"/>
    </junction>
    <junction id="J7" type="traffic_light" x="7152.00" y="0.00" incLanes="-E7_0 E6_0" intLanes=":J7_0_0 :J7_1_0" shape="7152.00,3.20 7152.00,-3.20 7152.00,3.20">
        <request index="0" response="00" foes="00" cont="0"/>
        <request index="1" response="00" foes="00" cont="0"/>
    </junction>
    <junction id="J8" type="traffic_light" x="8130.00" y="0.00" incLanes="-E8_0 E7_0" intLanes=":J8_0_0 :J8_1_0" shape="8130.00,3.20 8130.00,-3.20 8130.00,3.20">
        <request index="0" response="00" foes="00" cont="0"/>
        <request index="1" response="00" foes="00" cont="0"/>
    </junction>
    <junction id="J9" type="traffic_light" x="8976.00" y="0.00" incLanes="-E9_0 E8_0" intLanes=":J9_0_0 :J9_1_0" shape="8976.00,3.20 8976.00,-3.20 8976.00,3.20">
        <request index="0" response="00" foes="00" cont="0"/>
        <request index="1" response="00" foes="00" cont="0"/>
    </junction>

    <connection from="-E1" to="-E0" fromLane="0" toLane="0" via=":J1_0_0" tl="J1" linkIndex="0" dir="s" state="O"/>
    <connection from="-E10" to="-E9" fromLane="0" toLane="0" via=":J10_0_0" tl="J10" linkIndex="0" dir="s" state="O"/>
    <connection from="-E11" to="-E10" fromLane="0" toLane="0" via=":J11_0_0" tl="J11" linkIndex="0" dir="s" state="O"/>
    <connection from="-E12" to="-E11" fromLane="0" toLane="0" via=":J12_0_0" tl="J12" linkIndex="0" dir="s" state="O"/>
    <connection from="-E13" to="-E12" fromLane="0" toLane="0" via=":J13_0_0" tl="J13" linkIndex="0" dir="s" state="O"/>
    <connection from="-E14" to="-E13" fromLane="0" toLane="0" via=":J14_0_0" tl="J14" linkIndex="0" dir="s" state="O"/>
    <connection from="-E15" to="-E14" fromLane="0" toLane="0" via=":J15_0_0" tl="J15" linkIndex="0" dir="s" state="O"/>
    <connection from="-E16" to="-E15" fromLane="0" toLane="0" via=":J16_0_0" tl="J16" linkIndex="0" dir="s" state="O"/>
    <connection from="-E2" to="-E1" fromLane="0" toLane="0" via=":J2_0_0" tl="J2" linkIndex="0" dir="s" state="O"/>
    <connection from="-E3" to="-E2" fromLane="0" toLane="0" via=":J3_0_0" tl="J3" linkIndex="0" dir="s" state="O"/>
    <connection from="-E4" to="-E3" fromLane="0" toLane="0" via=":J4_0_0" tl="J4" linkIndex="0" dir="s" state="O"/>
    <connection from="-E5" to="-E4" fromLane="0" toLane="0" via=":J5_0_0" tl="J5" linkIndex="0" dir="s" state="O"/>
    <connection from="-E6" to="-E5" fromLane="0" toLane="0" via=":J6_0_0" tl="J6" linkIndex="0" dir="s" state="O"/>
    <connection from="-E7" to="-E6" fromLane="0" toLane="0" via=":J7_0_0" tl="J7" linkIndex="0" dir="s" state="O"/>
    <connection from="-E8" to="-E7" fromLane="0" toLane="0" via=":J8_0_0" tl="J8" linkIndex="0" dir="s" state="O"/>
    <connection from="-E9" to="-E8" fromLane="0" toLane="0" via=":J9_0_0" tl="J9" linkIndex="0" dir="s" state="O"/>
    <connection from="E0" to="E1" fromLane="0" toLane="0" via=":J1_1_0" tl="J1" linkIndex="1" dir="s" state="O"/>
    <connection from="E1" to="E2" fromLane="0" toLane="0" via=":J2_1_0" tl="J2" linkIndex="1" dir="s" state="O"/>
    <connection from="E10" to="E11" fromLane="0" toLane="0" via=":J11_1_0" tl="J11" linkIndex="1" dir="s" state="O"/>
    <connection from="E11" to="E12" fromLane="0" toLane="0" via=":J12_1_0" tl="J12" linkIndex="1" dir="s" state="O"/>
    <connection from="E12" to="E13" fromLane="0" toLane="0" via=":J13_1_0" tl="J13" linkIndex="1" dir="s" state="O"/>
    <connection from="E13" to="E14" fromLane="0" toLane="0" via=":J14_1_0" tl="J14" linkIndex="1" dir="s" state="O"/>
    <connection from="E14" to="E15" fromLane="0" toLane="0" via=":J15_1_0" tl="J15" linkIndex="1" dir="s" state="O"/>
    <connection from="E15" to="E16" fromLane="0" toLane="0" via=":J16_1_0" tl="J16" linkIndex="1" dir="s" state="O"/>
    <connection from="E2" to="E3" fromLane="0" toLane="0" via=":J3_1_0" tl="J3" linkIndex="1" dir="s" state="O"/>
    <connection from="E3" to="E4" fromLane="0" toLane="0" via=":J4_1_0" tl="J4" linkIndex="1" dir="s" state="O"/>
    <connection from="E4" to="E5" fromLane="0" toLane="0" via=":J5_1_0" tl="J5" linkIndex="1" dir="s" state="O"/>
    <connection from="E5" to="E6" fromLane="0" toLane="0" via=":J6_1_0" tl="J6" linkIndex="1" dir="s" state="O"/>
    <connection from="E6" to="E7" fromLane="0" toLane="0" via=":J7_1_0" tl="J7" linkIndex="1" dir="s" state="O"/>
    <connection from="E7" to="E8" fromLane="0" toLane="0" via=":J8_1_0" tl="J8" linkIndex="1" dir="s" state="O"/>
    <connection from="E8" to="E9" fromLane="0" toLane="0" via=":J9_1_0" tl="J9" linkIndex="1" dir="s" state="O"/>
    <connection from="E9" to="E10" fromLane="0" toLane="0" via=":J10_1_0" tl="J10" linkIndex="1" dir="s" state="O"/>

    <connection from=":J1_0" to="-E0" fromLane="0" toLane="0" dir="s" state="M"/>
    <connection from=":J1_1" to="E1" fromLane="0" toLane="0" dir="s" state="M"/>
    <connection from=":J10_0" to="-E9" fromLane="0" toLane="0" dir="s" state="M"/>
    <connection from=":J10_1" to="E10" fromLane="0" toLane="0" dir="s" state="M"/>
    <connection from=":J11_0" to="-E10" fromLane="0" toLane="0" dir="s" state="M"/>
    <connection from=":J11_1" to="E11" fromLane="0" toLane="0" dir="s" state="M"/>
    <connection from=":J12_0" to="-E11" fromLane="0" toLane="0" dir="s" state="M"/>
    <connection from=":J12_1" to="E12" fromLane="0" toLane="0" dir="s" state="M"/>
    <connection from=":J13_0" to="-E12" fromLane="0" toLane="0" dir="s" state="M"/>
    <connection from=":J13_1" to="E13" fromLane="0" toLane="0" dir="s" state="M"/>
    <connection from=":J14_0" to="-E13" fromLane="0" toLane="0" dir="s" state="M"/>
    <connection from=":J14_1" to="E14" fromLane="0" toLane="0" dir="s" state="M"/>
    <connection from=":J15_0" to="-E14" fromLane="0" toLane="0" dir="s" state="M"/>
    <connection from=":J15_1" to="E15" fromLane="0" toLane="0" dir="s" state="M"/>
    <connection from=":J16_0" to="-E15" fromLane="0" toLane="0" dir="s" state="M"/>
    <connection from=":J16_1" to="E16" fromLane="0" toLane="0" dir="s" state="M"/>
    <connection from=":J2_0" to="-E1" fromLane="0" toLane="0" dir="s" state="M"/>
    <connection from=":J2_1" to="E2" fromLane="0" toLane="0" dir="s" state="M"/>
    <connection from=":J3_0" to="-E2" fromLane="0" toLane="0" dir="s" state="M"/>
    <connection from=":J3_1" to="E3" fromLane="0" toLane="0" dir="s" state="M"/>
    <connection from=":J4_0" to="-E3" fromLane="0" toLane="0" dir="s" state="M"/>
    <connection from=":J4_1" to="E4" fromLane="0" toLane="0" dir="s" state="M"/>
    <connection from=":J5_0" to="-E4" fromLane="0" toLane="0" dir="s" state="M"/>
    <connection from=":J5_1" to="E5" fromLane="0" toLane="0" dir="s" state="M"/>
    <connection from=":J6_0" to="-E5" fromLane="0" toLane="0" dir="s" state="M"/>
    <connection from=":J6_1" to="E6" fromLane="0" toLane="0" dir="s" state="M"/>
    <connection from=":J7_0" to="-E6" fromLane="0" toLane="0" dir="s" state="M"/>
    <connection from=":J7_1" to="E7" fromLane="0" toLane="0" dir="s" state="M"/>
    <connection from=":J8_0" to="-E7" fromLane="0" toLane="0" dir="s" state="M"/>
    <connection from=":J8_1" to="E8" fromLane="0" toLane="0" dir="s" state="M"/>
    <connection from=":J9_0" to="-E8" fromLane="0" toLane="0" dir="s" state="M"/>
    <connection from=":J9_1" to="E9" fromLane="0" toLane="0" dir="s" state="M"/>

</net>
