<tlLogics xmlns:xsi="http://www.w3.org/2001/XMLSchema-instance" version="1.9" xsi:noNamespaceSchemaLocation="http://sumo.dlr.de/xsd/tllogic_file.xsd">
    <tlLogic id="J1" type="static" programID="0" offset="34">
        <phase duration="38" state="GG" />
        <phase duration=".1" state="yy" />
        <phase duration="22" state="rr" />
    </tlLogic>
    <tlLogic id="J10" type="static" programID="0" offset="35">
        <phase duration="47" state="GG" />
        <phase duration="0.10" state="yy" />
        <phase duration="13" state="rr" />
    </tlLogic>
    <tlLogic id="J11" type="static" programID="0" offset="32">
        <phase duration="39" state="GG" />
        <phase duration="0.10" state="yy" />
        <phase duration="21" state="rr" />
    </tlLogic>
    <tlLogic id="J12" type="static" programID="0" offset="4">
        <phase duration="50" state="GG" />
        <phase duration="0.10" state="yy" />
        <phase duration="10" state="rr" />
    </tlLogic>
    <tlLogic id="J13" type="static" programID="0" offset="15">
        <phase duration="30" state="GG" />
        <phase duration="0.10" state="yy" />
        <phase duration="30" state="rr" />
    </tlLogic>
    <tlLogic id="J14" type="static" programID="0" offset="35">
        <phase duration="13" state="GG" />
        <phase duration="0.10" state="yy" />
        <phase duration="47" state="rr" />
    </tlLogic>
    <tlLogic id="J15" type="static" programID="0" offset="10">
        <phase duration="34" state="GG" />
        <phase duration="0.10" state="yy" />
        <phase duration="26" state="rr" />
    </tlLogic>
    <tlLogic id="J16" type="static" programID="0" offset="22">
        <phase duration="46" state="GG" />
        <phase duration="0.10" state="yy" />
        <phase duration="14" state="rr" />
    </tlLogic>
    <tlLogic id="J2" type="static" programID="0" offset="4">
        <phase duration="11" state="GG" />
        <phase duration=".1" state="yy" />
        <phase duration="49" state="rr" />
    </tlLogic>
    <tlLogic id="J3" type="static" programID="0" offset="11">
        <phase duration="17" state="GG" />
        <phase duration=".1" state="yy" />
        <phase duration="43" state="rr" />
    </tlLogic>
    <tlLogic id="J4" type="static" programID="0" offset="43">
        <phase duration="43" state="GG" />
        <phase duration=".1" state="yy" />
        <phase duration="17" state="rr" />
    </tlLogic>
    <tlLogic id="J5" type="static" programID="0" offset="51">
        <phase duration="14" state="GG" />
        <phase duration="0.10" state="yy" />
        <phase duration="46" state="rr" />
    </tlLogic>
    <tlLogic id="J6" type="static" programID="0" offset="41">
        <phase duration="45" state="GG" />
        <phase duration="0.10" state="yy" />
        <phase duration="15" state="rr" />
    </tlLogic>
    <tlLogic id="J7" type="static" programID="0" offset="28">
        <phase duration="46" state="GG" />
        <phase duration="0.10" state="yy" />
        <phase duration="14" state="rr" />
    </tlLogic>
    <tlLogic id="J8" type="static" programID="0" offset="59">
        <phase duration="12" state="GG" />
        <phase duration="0.10" state="yy" />
        <phase duration="48" state="rr" />
    </tlLogic>
    <tlLogic id="J9" type="static" programID="0" offset="25">
        <phase duration="45" state="GG" />
        <phase duration="0.10" state="yy" />
        <phase duration="15" state="rr" />
    </tlLogic>

    <connection from="-E1" to="-E0" fromLane="0" toLane="0" tl="J1" linkIndex="0" />
    <connection from="-E10" to="-E9" fromLane="0" toLane="0" tl="J10" linkIndex="0" />
    <connection from="-E11" to="-E10" fromLane="0" toLane="0" tl="J11" linkIndex="0" />
    <connection from="-E12" to="-E11" fromLane="0" toLane="0" tl="J12" linkIndex="0" />
    <connection from="-E13" to="-E12" fromLane="0" toLane="0" tl="J13" linkIndex="0" />
    <connection from="-E14" to="-E13" fromLane="0" toLane="0" tl="J14" linkIndex="0" />
    <connection from="-E15" to="-E14" fromLane="0" toLane="0" tl="J15" linkIndex="0" />
    <connection from="-E16" to="-E15" fromLane="0" toLane="0" tl="J16" linkIndex="0" />
    <connection from="-E2" to="-E1" fromLane="0" toLane="0" tl="J2" linkIndex="0" />
    <connection from="-E3" to="-E2" fromLane="0" toLane="0" tl="J3" linkIndex="0" />
    <connection from="-E4" to="-E3" fromLane="0" toLane="0" tl="J4" linkIndex="0" />
    <connection from="-E5" to="-E4" fromLane="0" toLane="0" tl="J5" linkIndex="0" />
    <connection from="-E6" to="-E5" fromLane="0" toLane="0" tl="J6" linkIndex="0" />
    <connection from="-E7" to="-E6" fromLane="0" toLane="0" tl="J7" linkIndex="0" />
    <connection from="-E8" to="-E7" fromLane="0" toLane="0" tl="J8" linkIndex="0" />
    <connection from="-E9" to="-E8" fromLane="0" toLane="0" tl="J9" linkIndex="0" />
    <connection from="E0" to="E1" fromLane="0" toLane="0" tl="J1" linkIndex="1" />
    <connection from="E1" to="E2" fromLane="0" toLane="0" tl="J2" linkIndex="1" />
    <connection from="E10" to="E11" fromLane="0" toLane="0" tl="J11" linkIndex="1" />
    <connection from="E11" to="E12" fromLane="0" toLane="0" tl="J12" linkIndex="1" />
    <connection from="E12" to="E13" fromLane="0" toLane="0" tl="J13" linkIndex="1" />
    <connection from="E13" to="E14" fromLane="0" toLane="0" tl="J14" linkIndex="1" />
    <connection from="E14" to="E15" fromLane="0" toLane="0" tl="J15" linkIndex="1" />
    <connection from="E15" to="E16" fromLane="0" toLane="0" tl="J16" linkIndex="1" />
    <connection from="E2" to="E3" fromLane="0" toLane="0" tl="J3" linkIndex="1" />
    <connection from="E3" to="E4" fromLane="0" toLane="0" tl="J4" linkIndex="1" />
    <connection from="E4" to="E5" fromLane="0" toLane="0" tl="J5" linkIndex="1" />
    <connection from="E5" to="E6" fromLane="0" toLane="0" tl="J6" linkIndex="1" />
    <connection from="E6" to="E7" fromLane="0" toLane="0" tl="J7" linkIndex="1" />
    <connection from="E7" to="E8" fromLane="0" toLane="0" tl="J8" linkIndex="1" />
    <connection from="E8" to="E9" fromLane="0" toLane="0" tl="J9" linkIndex="1" />
    <connection from="E9" to="E10" fromLane="0" toLane="0" tl="J10" linkIndex="1" />
</tlLogics>