<?xml version="1.0" encoding="UTF-8"?>

<!-- generated on 2023-01-30 16:08:39 by Eclipse SUMO netedit Version 1.15.0
<configuration xmlns:xsi="http://www.w3.org/2001/XMLSchema-instance" xsi:noNamespaceSchemaLocation="http://sumo.dlr.de/xsd/netconvertConfiguration.xsd">

    <input>
        <sumo-net-file value="C:\Users\bking\Documents\Uni\Research\Thesis\Simulations\Variable Light Times\networkCustom2.net.xml"/>
    </input>

    <output>
        <output-file value="C:\Users\bking\Documents\Uni\Research\Thesis\Simulations\Variable Light Times\networkCustom2.net.xml"/>
    </output>

    <processing>
        <geometry.min-radius.fix.railways value="false"/>
        <geometry.max-grade.fix value="false"/>
        <offset.disable-normalization value="true"/>
        <lefthand value="0"/>
    </processing>

    <junctions>
        <no-turnarounds value="true"/>
        <junctions.corner-detail value="5"/>
        <junctions.limit-turn-speed value="5.50"/>
        <rectangular-lane-cut value="0"/>
    </junctions>

    <pedestrian>
        <walkingareas value="0"/>
    </pedestrian>

</configuration>
-->

<connections version="1.9" xmlns:xsi="http://www.w3.org/2001/XMLSchema-instance" xsi:noNamespaceSchemaLocation="http://sumo.dlr.de/xsd/connections_file.xsd">
    <connection from="-E0"/>

    <connection from="-E1" to="-E0" fromLane="0" toLane="0"/>

    <connection from="-E10" to="-E9" fromLane="0" toLane="0"/>

    <connection from="-E11" to="-E10" fromLane="0" toLane="0"/>

    <connection from="-E12" to="-E11" fromLane="0" toLane="0"/>

    <connection from="-E13" to="-E12" fromLane="0" toLane="0"/>

    <connection from="-E14" to="-E13" fromLane="0" toLane="0"/>

    <connection from="-E15" to="-E14" fromLane="0" toLane="0"/>

    <connection from="-E16" to="-E15" fromLane="0" toLane="0"/>

    <connection from="-E2" to="-E1" fromLane="0" toLane="0"/>

    <connection from="-E3" to="-E2" fromLane="0" toLane="0"/>

    <connection from="-E4" to="-E3" fromLane="0" toLane="0"/>

    <connection from="-E5" to="-E4" fromLane="0" toLane="0"/>

    <connection from="-E6" to="-E5" fromLane="0" toLane="0"/>

    <connection from="-E7" to="-E6" fromLane="0" toLane="0"/>

    <connection from="-E8" to="-E7" fromLane="0" toLane="0"/>

    <connection from="-E9" to="-E8" fromLane="0" toLane="0"/>

    <connection from="E0" to="E1" fromLane="0" toLane="0"/>

    <connection from="E1" to="E2" fromLane="0" toLane="0"/>

    <connection from="E10" to="E11" fromLane="0" toLane="0"/>

    <connection from="E11" to="E12" fromLane="0" toLane="0"/>

    <connection from="E12" to="E13" fromLane="0" toLane="0"/>

    <connection from="E13" to="E14" fromLane="0" toLane="0"/>

    <connection from="E14" to="E15" fromLane="0" toLane="0"/>

    <connection from="E15" to="E16" fromLane="0" toLane="0"/>

    <connection from="E16"/>

    <connection from="E2" to="E3" fromLane="0" toLane="0"/>

    <connection from="E3" to="E4" fromLane="0" toLane="0"/>

    <connection from="E4" to="E5" fromLane="0" toLane="0"/>

    <connection from="E5" to="E6" fromLane="0" toLane="0"/>

    <connection from="E6" to="E7" fromLane="0" toLane="0"/>

    <connection from="E7" to="E8" fromLane="0" toLane="0"/>

    <connection from="E8" to="E9" fromLane="0" toLane="0"/>

    <connection from="E9" to="E10" fromLane="0" toLane="0"/>

</connections>
