<?xml version="1.0" encoding="UTF-8"?>

<!-- generated on 2023-01-12 18:44:51 by Eclipse SUMO netedit Version 1.15.0
<configuration xmlns:xsi="http://www.w3.org/2001/XMLSchema-instance" xsi:noNamespaceSchemaLocation="http://sumo.dlr.de/xsd/netconvertConfiguration.xsd">

    <input>
        <sumo-net-file value="C:\Users\bking\Documents\Uni\Research\Thesis\Simulations\Test Networks\testNet.net.xml"/>
    </input>

    <output>
        <output-file value="C:\Users\bking\Documents\Uni\Research\Thesis\Simulations\Test Networks\testNet.net.xml"/>
    </output>

    <processing>
        <geometry.min-radius.fix.railways value="false"/>
        <geometry.max-grade.fix value="false"/>
        <offset.disable-normalization value="true"/>
        <lefthand value="0"/>
    </processing>

    <junctions>
        <no-turnarounds value="true"/>
        <junctions.corner-detail value="5"/>
        <junctions.limit-turn-speed value="5.50"/>
        <rectangular-lane-cut value="0"/>
    </junctions>

    <pedestrian>
        <walkingareas value="0"/>
    </pedestrian>

</configuration>
-->

<net version="1.9" junctionCornerDetail="5" limitTurnSpeed="5.50" xmlns:xsi="http://www.w3.org/2001/XMLSchema-instance" xsi:noNamespaceSchemaLocation="http://sumo.dlr.de/xsd/net_file.xsd">

    <location netOffset="0.00,0.00" convBoundary="-23.78,24.63,102.56,81.34" origBoundary="-10000000000.00,-10000000000.00,10000000000.00,10000000000.00" projParameter="!"/>

    <edge id=":J1_0" function="internal">
        <lane id=":J1_0_0" index="0" speed="6.74" length="9.30" shape="14.62,61.82 14.14,59.31 13.00,57.51 11.20,56.41 8.73,56.02"/>
    </edge>
    <edge id=":J1_1" function="internal">
        <lane id=":J1_1_0" index="0" speed="13.89" length="14.86" shape="14.62,61.82 14.47,58.10 14.42,54.40 14.46,50.70 14.59,46.97"/>
    </edge>
    <edge id=":J1_2" function="internal">
        <lane id=":J1_2_0" index="0" speed="8.03" length="14.43" shape="14.62,61.82 14.99,57.93 16.55,55.10 19.31,53.34 23.26,52.64"/>
    </edge>
    <edge id=":J1_3" function="internal">
        <lane id=":J1_3_0" index="0" speed="6.54" length="9.22" shape="23.38,55.83 20.84,56.28 19.06,57.40 18.05,59.19 17.81,61.66"/>
    </edge>
    <edge id=":J1_4" function="internal">
        <lane id=":J1_4_0" index="0" speed="13.89" length="14.65" shape="23.38,55.83 8.73,56.02"/>
    </edge>
    <edge id=":J1_5" function="internal">
        <lane id=":J1_5_0" index="0" speed="7.86" length="4.32" shape="23.38,55.83 19.38,55.41 19.12,55.26"/>
    </edge>
    <edge id=":J1_20" function="internal">
        <lane id=":J1_20_0" index="0" speed="7.86" length="10.19" shape="19.12,55.26 16.58,53.79 14.98,50.98 14.59,46.97"/>
    </edge>
    <edge id=":J1_6" function="internal">
        <lane id=":J1_6_0" index="0" speed="6.54" length="9.22" shape="23.38,55.83 20.84,56.28 19.06,57.40 18.05,59.19 17.81,61.66"/>
    </edge>
    <edge id=":J1_7" function="internal">
        <lane id=":J1_7_0" index="0" speed="13.89" length="14.65" shape="23.38,55.83 8.73,56.02"/>
    </edge>
    <edge id=":J1_8" function="internal">
        <lane id=":J1_8_0" index="0" speed="7.86" length="14.51" shape="23.38,55.83 19.38,55.41 16.58,53.79 14.98,50.98 14.59,46.97"/>
    </edge>
    <edge id=":J1_9" function="internal">
        <lane id=":J1_9_0" index="0" speed="3.24" length="3.20" shape="23.38,55.83 23.26,52.64"/>
    </edge>
    <edge id=":J1_10" function="internal">
        <lane id=":J1_10_0" index="0" speed="6.34" length="9.04" shape="17.79,47.12 18.03,49.61 19.02,51.36 20.77,52.37 23.26,52.64"/>
    </edge>
    <edge id=":J1_11" function="internal">
        <lane id=":J1_11_0" index="0" speed="13.89" length="14.55" shape="17.79,47.12 17.66,50.79 17.62,54.39 17.67,57.99 17.81,61.66"/>
    </edge>
    <edge id=":J1_12" function="internal">
        <lane id=":J1_12_0" index="0" speed="8.15" length="14.38" shape="17.79,47.12 17.07,51.05 15.32,53.85 12.54,55.51 8.73,56.02"/>
    </edge>
    <edge id=":J1_13" function="internal">
        <lane id=":J1_13_0" index="0" speed="6.34" length="9.04" shape="17.79,47.12 18.03,49.61 19.02,51.36 20.77,52.37 23.26,52.64"/>
    </edge>
    <edge id=":J1_14" function="internal">
        <lane id=":J1_14_0" index="0" speed="13.89" length="14.55" shape="17.79,47.12 17.66,50.79 17.62,54.39 17.67,57.99 17.81,61.66"/>
    </edge>
    <edge id=":J1_15" function="internal">
        <lane id=":J1_15_0" index="0" speed="8.15" length="14.38" shape="17.79,47.12 17.07,51.05 15.32,53.85 12.54,55.51 8.73,56.02"/>
    </edge>
    <edge id=":J1_16" function="internal">
        <lane id=":J1_16_0" index="0" speed="3.24" length="3.20" shape="17.79,47.12 14.59,46.97"/>
    </edge>
    <edge id=":J1_17" function="internal">
        <lane id=":J1_17_0" index="0" speed="6.68" length="9.34" shape="8.77,52.82 11.22,52.48 13.00,51.39 14.13,49.56 14.59,46.97"/>
    </edge>
    <edge id=":J1_18" function="internal">
        <lane id=":J1_18_0" index="0" speed="13.89" length="14.49" shape="8.77,52.82 23.26,52.64"/>
    </edge>
    <edge id=":J1_19" function="internal">
        <lane id=":J1_19_0" index="0" speed="8.20" length="3.84" shape="8.77,52.82 12.56,53.41"/>
    </edge>
    <edge id=":J1_21" function="internal">
        <lane id=":J1_21_0" index="0" speed="8.20" length="10.39" shape="12.56,53.41 15.33,55.09 17.08,57.84 17.81,61.66"/>
    </edge>
    <edge id=":J2_0" function="internal">
        <lane id=":J2_0_0" index="0" speed="6.64" length="9.26" shape="54.23,60.54 53.73,58.00 52.57,56.22 50.77,55.19 48.31,54.91"/>
    </edge>
    <edge id=":J2_1" function="internal">
        <lane id=":J2_1_0" index="0" speed="6.64" length="9.26" shape="54.23,60.54 53.73,58.00 52.57,56.22 50.77,55.19 48.31,54.91"/>
    </edge>
    <edge id=":J2_2" function="internal">
        <lane id=":J2_2_0" index="0" speed="13.89" length="14.92" shape="54.23,60.54 54.05,56.81 53.97,53.08 54.00,49.36 54.13,45.62"/>
    </edge>
    <edge id=":J2_3" function="internal">
        <lane id=":J2_3_0" index="0" speed="7.89" length="14.43" shape="54.23,60.54 54.55,56.56 56.09,53.72 58.83,52.02 62.77,51.45"/>
    </edge>
    <edge id=":J2_4" function="internal">
        <lane id=":J2_4_0" index="0" speed="6.38" length="9.04" shape="62.77,54.65 60.30,55.01 58.59,56.07 57.63,57.85 57.42,60.34"/>
    </edge>
    <edge id=":J2_5" function="internal">
        <lane id=":J2_5_0" index="0" speed="13.89" length="14.46" shape="62.77,54.65 48.31,54.91"/>
    </edge>
    <edge id=":J2_6" function="internal">
        <lane id=":J2_6_0" index="0" speed="13.89" length="14.46" shape="62.77,54.65 48.31,54.91"/>
    </edge>
    <edge id=":J2_7" function="internal">
        <lane id=":J2_7_0" index="0" speed="7.93" length="3.99" shape="62.77,54.65 58.83,54.09"/>
    </edge>
    <edge id=":J2_16" function="internal">
        <lane id=":J2_16_0" index="0" speed="7.93" length="10.43" shape="58.83,54.09 56.07,52.39 54.50,49.57 54.13,45.62"/>
    </edge>
    <edge id=":J2_8" function="internal">
        <lane id=":J2_8_0" index="0" speed="6.42" length="9.07" shape="57.32,45.78 57.56,48.26 58.55,50.03 60.29,51.10 62.77,51.45"/>
    </edge>
    <edge id=":J2_9" function="internal">
        <lane id=":J2_9_0" index="0" speed="13.89" length="14.57" shape="57.32,45.78 57.19,49.46 57.17,53.06 57.24,56.66 57.42,60.34"/>
    </edge>
    <edge id=":J2_10" function="internal">
        <lane id=":J2_10_0" index="0" speed="8.30" length="14.37" shape="57.32,45.78 56.60,49.65 54.86,52.47 52.10,54.22 48.31,54.91"/>
    </edge>
    <edge id=":J2_11" function="internal">
        <lane id=":J2_11_0" index="0" speed="8.30" length="14.37" shape="57.32,45.78 56.60,49.65 54.86,52.47 52.10,54.22 48.31,54.91"/>
    </edge>
    <edge id=":J2_12" function="internal">
        <lane id=":J2_12_0" index="0" speed="6.87" length="9.52" shape="48.19,51.71 50.68,51.26 52.50,50.09 53.65,48.21 54.13,45.62"/>
    </edge>
    <edge id=":J2_13" function="internal">
        <lane id=":J2_13_0" index="0" speed="13.89" length="14.58" shape="48.19,51.71 62.77,51.45"/>
    </edge>
    <edge id=":J2_14" function="internal">
        <lane id=":J2_14_0" index="0" speed="8.11" length="4.15" shape="48.19,51.71 52.02,52.13 52.28,52.28"/>
    </edge>
    <edge id=":J2_15" function="internal">
        <lane id=":J2_15_0" index="0" speed="3.24" length="1.62" shape="48.19,51.71 48.25,53.33"/>
    </edge>
    <edge id=":J2_17" function="internal">
        <lane id=":J2_17_0" index="0" speed="8.11" length="10.18" shape="52.28,52.28 54.84,53.71 56.64,56.45 57.42,60.34"/>
    </edge>
    <edge id=":J2_18" function="internal">
        <lane id=":J2_18_0" index="0" speed="3.24" length="1.58" shape="48.25,53.33 48.31,54.91"/>
    </edge>
    <edge id=":J4_0" function="internal">
        <lane id=":J4_0_0" index="0" speed="8.01" length="13.89" shape="49.74,25.54 53.44,26.37 56.03,28.17 57.50,30.97 57.85,34.74"/>
    </edge>
    <edge id=":J4_1" function="internal">
        <lane id=":J4_1_0" index="0" speed="3.24" length="1.71" shape="49.74,25.54 49.61,27.25"/>
    </edge>
    <edge id=":J4_4" function="internal">
        <lane id=":J4_4_0" index="0" speed="3.24" length="1.49" shape="49.61,27.25 49.49,28.74"/>
    </edge>
    <edge id=":J4_2" function="internal">
        <lane id=":J4_2_0" index="0" speed="6.51" length="8.84" shape="54.66,34.59 54.43,32.18 53.50,30.41 51.85,29.26 49.49,28.74"/>
    </edge>
    <edge id=":J4_3" function="internal">
        <lane id=":J4_3_0" index="0" speed="6.51" length="8.84" shape="54.66,34.59 54.43,32.18 53.50,30.41 51.85,29.26 49.49,28.74"/>
    </edge>
    <edge id=":J5_0" function="internal">
        <lane id=":J5_0_0" index="0" speed="6.07" length="7.97" shape="58.46,77.06 58.28,79.25 57.44,80.83 55.94,81.80 53.77,82.16"/>
    </edge>
    <edge id=":J5_1" function="internal">
        <lane id=":J5_1_0" index="0" speed="3.90" length="2.66" shape="53.70,78.96 54.43,78.84 54.93,78.52 55.21,77.99 55.27,77.26"/>
    </edge>
    <edge id=":J6_0" function="internal">
        <lane id=":J6_0_0" index="0" speed="6.08" length="7.58" shape="20.34,82.87 18.29,82.63 16.79,81.78 15.84,80.35 15.45,78.32"/>
    </edge>
    <edge id=":J6_1" function="internal">
        <lane id=":J6_1_0" index="0" speed="3.91" length="2.53" shape="18.64,78.15 18.77,78.83 19.09,79.31 19.59,79.59 20.27,79.67"/>
    </edge>
    <edge id=":J7_0" function="internal">
        <lane id=":J7_0_0" index="0" speed="6.44" length="9.03" shape="24.36,26.79 21.88,26.95 20.07,27.87 18.93,29.56 18.47,32.00"/>
    </edge>
    <edge id=":J7_1" function="internal">
        <lane id=":J7_1_0" index="0" speed="6.44" length="9.03" shape="24.36,26.79 21.88,26.95 20.07,27.87 18.93,29.56 18.47,32.00"/>
    </edge>
    <edge id=":J7_2" function="internal">
        <lane id=":J7_2_0" index="0" speed="6.44" length="9.03" shape="24.36,26.79 21.88,26.95 20.07,27.87 18.93,29.56 18.47,32.00"/>
    </edge>
    <edge id=":J7_3" function="internal">
        <lane id=":J7_3_0" index="0" speed="6.44" length="9.03" shape="24.36,26.79 21.88,26.95 20.07,27.87 18.93,29.56 18.47,32.00"/>
    </edge>
    <edge id=":J7_4" function="internal">
        <lane id=":J7_4_0" index="0" speed="3.24" length="3.20" shape="24.36,26.79 24.61,23.60"/>
    </edge>
    <edge id=":J7_5" function="internal">
        <lane id=":J7_5_0" index="0" speed="7.94" length="14.32" shape="15.27,31.85 16.01,27.98 17.81,25.32 20.67,23.86 24.61,23.60"/>
    </edge>
    <edge id=":J7_6" function="internal">
        <lane id=":J7_6_0" index="0" speed="3.24" length="1.71" shape="15.27,31.85 16.98,31.93"/>
    </edge>
    <edge id=":J7_7" function="internal">
        <lane id=":J7_7_0" index="0" speed="3.24" length="1.49" shape="16.98,31.93 18.47,32.00"/>
    </edge>

    <edge id="-E0" from="J1" to="J0" priority="-1">
        <lane id="-E0_0" index="0" speed="13.89" length="32.54" shape="8.73,56.02 -23.80,55.62"/>
    </edge>
    <edge id="-E1" from="J2" to="J1" priority="-1">
        <lane id="-E1_0" index="0" speed="13.89" length="24.95" shape="48.31,54.91 23.38,55.83"/>
    </edge>
    <edge id="-E10" from="J2" to="J1" priority="-1">
        <lane id="-E10_0" index="0" speed="13.89" length="24.95" shape="48.31,54.91 23.38,55.83"/>
    </edge>
    <edge id="-E2" from="J3" to="J2" priority="-1">
        <lane id="-E2_0" index="0" speed="13.89" length="39.79" shape="102.56,54.65 62.77,54.65"/>
    </edge>
    <edge id="-E3" from="J2" to="J4" priority="-1">
        <lane id="-E3_0" index="0" speed="13.89" length="11.05" shape="54.13,45.62 54.66,34.59"/>
    </edge>
    <edge id="-E4" from="J6" to="J5" priority="-1">
        <lane id="-E4_0" index="0" speed="13.89" length="33.44" shape="20.27,79.67 53.70,78.96"/>
    </edge>
    <edge id="-E5" from="J2" to="J5" priority="-1">
        <lane id="-E5_0" index="0" speed="13.89" length="16.76" shape="57.42,60.34 58.46,77.06"/>
    </edge>
    <edge id="-E6" from="J6" to="J1" priority="-1">
        <lane id="-E6_0" index="0" speed="13.89" length="16.51" shape="15.45,78.32 14.62,61.82"/>
    </edge>
    <edge id="-E7" from="J7" to="J1" priority="-1">
        <lane id="-E7_0" index="0" speed="13.89" length="15.13" shape="18.47,32.00 17.79,47.12"/>
    </edge>
    <edge id="-E70" from="J7" to="J1" priority="-1">
        <lane id="-E70_0" index="0" speed="13.89" length="15.13" shape="18.47,32.00 17.79,47.12"/>
    </edge>
    <edge id="-E8" from="J4" to="J7" priority="-1">
        <lane id="-E8_0" index="0" speed="13.89" length="25.21" shape="49.49,28.74 24.36,26.79"/>
    </edge>
    <edge id="-E80" from="J4" to="J7" priority="-1">
        <lane id="-E80_0" index="0" speed="13.89" length="25.21" shape="49.49,28.74 24.36,26.79"/>
    </edge>
    <edge id="E0" from="J0" to="J1" priority="-1">
        <lane id="E0_0" index="0" speed="13.89" length="32.54" shape="-23.76,52.42 8.77,52.82"/>
    </edge>
    <edge id="E1" from="J1" to="J2" priority="-1">
        <lane id="E1_0" index="0" speed="13.89" length="24.95" shape="23.26,52.64 48.19,51.71"/>
    </edge>
    <edge id="E2" from="J2" to="J3" priority="-1">
        <lane id="E2_0" index="0" speed="13.89" length="39.79" shape="62.77,51.45 102.56,51.45"/>
    </edge>
    <edge id="E3" from="J4" to="J2" priority="-1">
        <lane id="E3_0" index="0" speed="13.89" length="11.05" shape="57.85,34.74 57.32,45.78"/>
    </edge>
    <edge id="E4" from="J5" to="J6" priority="-1">
        <lane id="E4_0" index="0" speed="13.89" length="33.44" shape="53.77,82.16 20.34,82.87"/>
    </edge>
    <edge id="E5" from="J5" to="J2" priority="-1">
        <lane id="E5_0" index="0" speed="13.89" length="16.76" shape="55.27,77.26 54.23,60.54"/>
    </edge>
    <edge id="E6" from="J1" to="J6" priority="-1">
        <lane id="E6_0" index="0" speed="13.89" length="16.51" shape="17.81,61.66 18.64,78.15"/>
    </edge>
    <edge id="E7" from="J1" to="J7" priority="-1">
        <lane id="E7_0" index="0" speed="13.89" length="15.13" shape="14.59,46.97 15.27,31.85"/>
    </edge>
    <edge id="E8" from="J7" to="J4" priority="-1">
        <lane id="E8_0" index="0" speed="13.89" length="25.21" shape="24.61,23.60 49.74,25.54"/>
    </edge>

    <junction id="J0" type="dead_end" x="-23.78" y="54.02" incLanes="-E0_0" intLanes="" shape="-23.78,54.02 -23.82,57.22 -23.78,54.02"/>
    <junction id="J1" type="priority" x="15.85" y="54.51" incLanes="-E6_0 -E1_0 -E10_0 -E7_0 -E70_0 E0_0" intLanes=":J1_0_0 :J1_1_0 :J1_2_0 :J1_3_0 :J1_4_0 :J1_20_0 :J1_6_0 :J1_7_0 :J1_8_0 :J1_9_0 :J1_10_0 :J1_11_0 :J1_12_0 :J1_13_0 :J1_14_0 :J1_15_0 :J1_16_0 :J1_17_0 :J1_18_0 :J1_21_0" shape="13.02,61.90 19.41,61.58 19.77,59.35 20.32,58.55 21.11,57.96 22.15,57.59 23.44,57.43 23.20,51.04 21.00,50.67 20.25,50.15 19.73,49.39 19.44,48.40 19.38,47.19 12.99,46.90 12.44,49.32 11.84,50.17 11.04,50.76 10.02,51.12 8.79,51.22 8.71,57.62 11.01,58.12 11.84,58.72 12.45,59.55 12.84,60.61">
        <request index="0"  response="00000000000010010000" foes="00001001000010010000" cont="0"/>
        <request index="1"  response="11100000000000110000" foes="11111001000110110000" cont="0"/>
        <request index="2"  response="11001111110010110000" foes="11001111111110110000" cont="0"/>
        <request index="3"  response="00000000000000000000" foes="10000100100001000000" cont="0"/>
        <request index="4"  response="00000000000000000000" foes="10001101100011000111" cont="0"/>
        <request index="5"  response="11100000000000000000" foes="11111101100111000110" cont="1"/>
        <request index="6"  response="10000100100000111000" foes="10000100100000111000" cont="0"/>
        <request index="7"  response="10000000000000110010" foes="10001101100000110111" cont="0"/>
        <request index="8"  response="11100100100000100110" foes="11111101100000100110" cont="0"/>
        <request index="9"  response="01000010010000000100" foes="01000010010000000100" cont="0"/>
        <request index="10" response="01000000000000000000" foes="01000010001000000100" cont="0"/>
        <request index="11" response="11000000000010111000" foes="11000110000111111100" cont="0"/>
        <request index="12" response="11000100000110110011" foes="11001110000110110111" cont="0"/>
        <request index="13" response="01000001110000000000" foes="01000001111000000100" cont="0"/>
        <request index="14" response="11000000100010111000" foes="11000001100111111100" cont="0"/>
        <request index="15" response="11000001000110110011" foes="11000001000110110111" cont="0"/>
        <request index="16" response="00100000000100100010" foes="00100000000100100010" cont="0"/>
        <request index="17" response="00000000000000000000" foes="00010000000100100010" cont="0"/>
        <request index="18" response="00000000000000000000" foes="00001111111100100110" cont="0"/>
        <request index="19" response="00000000000000011000" foes="00001101100111111110" cont="1"/>
    </junction>
    <junction id="J2" type="priority" x="55.37" y="53.05" incLanes="E5_0 -E2_0 E3_0 E1_0" intLanes=":J2_0_0 :J2_1_0 :J2_2_0 :J2_3_0 :J2_4_0 :J2_5_0 :J2_6_0 :J2_16_0 :J2_8_0 :J2_9_0 :J2_10_0 :J2_11_0 :J2_12_0 :J2_13_0 :J2_17_0 :J2_18_0" shape="52.63,60.64 59.02,60.24 59.33,58.02 59.84,57.25 60.58,56.69 61.56,56.36 62.77,56.25 62.77,49.85 60.55,49.41 59.79,48.85 59.26,48.07 58.97,47.08 58.92,45.85 52.53,45.55 51.94,48.02 51.32,48.90 50.48,49.54 49.42,49.95 48.14,50.12 48.37,56.51 50.62,56.90 51.44,57.47 52.04,58.28 52.44,59.34">
        <request index="0"  response="1000000000100000" foes="1000010000100000" cont="0"/>
        <request index="1"  response="1000000001100000" foes="1000110001100000" cont="0"/>
        <request index="2"  response="0111000011100000" foes="0111110011100000" cont="0"/>
        <request index="3"  response="0110001111100000" foes="0110111111100000" cont="0"/>
        <request index="4"  response="0000000000000000" foes="0100001000000000" cont="0"/>
        <request index="5"  response="0000000000000000" foes="1100011000001111" cont="0"/>
        <request index="6"  response="0000000000000000" foes="1100111000001110" cont="0"/>
        <request index="7"  response="0111000000000000" foes="0111111000001100" cont="1"/>
        <request index="8"  response="0010000000000000" foes="0010000000001000" cont="0"/>
        <request index="9"  response="0110000011110000" foes="0110000011111000" cont="0"/>
        <request index="10" response="1110000011101111" foes="1110000011101111" cont="0"/>
        <request index="11" response="1110000011001110" foes="1110000011001110" cont="0"/>
        <request index="12" response="0000000000000000" foes="0000000010000100" cont="0"/>
        <request index="13" response="0000000000000000" foes="0000111110001100" cont="0"/>
        <request index="14" response="0000000001110000" foes="0000111011111100" cont="1"/>
        <request index="15" response="0000000001100000" foes="0000110001100011" cont="1"/>
    </junction>
    <junction id="J3" type="dead_end" x="102.56" y="53.05" incLanes="E2_0" intLanes="" shape="102.56,53.05 102.56,49.85 102.56,53.05"/>
    <junction id="J4" type="priority" x="56.59" y="27.68" incLanes="E8_0 -E3_0" intLanes=":J4_0_0 :J4_4_0 :J4_2_0 :J4_3_0" shape="49.87,23.95 49.37,30.33 51.50,30.93 52.23,31.53 52.73,32.32 53.01,33.32 53.06,34.51 59.45,34.82 59.32,31.71 58.60,29.13 57.30,27.06 55.41,25.50 52.93,24.47">
        <request index="0" response="0000" foes="0000" cont="0"/>
        <request index="1" response="1100" foes="1100" cont="1"/>
        <request index="2" response="0000" foes="0010" cont="0"/>
        <request index="3" response="0000" foes="0010" cont="0"/>
    </junction>
    <junction id="J5" type="priority" x="57.07" y="80.49" incLanes="-E5_0 -E4_0" intLanes=":J5_0_0 :J5_1_0" shape="60.06,76.97 53.67,77.36 53.81,83.76 55.83,83.53 57.46,82.94 58.70,81.99 59.55,80.68 60.00,79.00">
        <request index="0" response="00" foes="00" cont="0"/>
        <request index="1" response="00" foes="00" cont="0"/>
    </junction>
    <junction id="J6" type="priority" x="17.20" y="81.34" incLanes="E4_0 E6_0" intLanes=":J6_0_0 :J6_1_0" shape="20.38,84.47 20.24,78.07 13.85,78.40 14.71,81.83 15.64,83.02 16.89,83.86 18.47,84.34">
        <request index="0" response="00" foes="00" cont="0"/>
        <request index="1" response="00" foes="00" cont="0"/>
    </junction>
    <junction id="J7" type="priority" x="17.20" y="24.63" incLanes="-E8_0 -E80_0 E7_0" intLanes=":J7_0_0 :J7_1_0 :J7_2_0 :J7_3_0 :J7_4_0 :J7_5_0 :J7_7_0" shape="24.24,28.38 24.73,22.00 21.48,22.05 18.80,22.73 16.68,24.04 15.11,25.99 14.11,28.57 13.67,31.78 20.07,32.07 20.61,29.89 21.20,29.15 22.00,28.66 23.01,28.40">
        <request index="0" response="0000000" foes="1000100" cont="0"/>
        <request index="1" response="0000000" foes="1001100" cont="0"/>
        <request index="2" response="1000011" foes="1000011" cont="0"/>
        <request index="3" response="1000010" foes="1000010" cont="0"/>
        <request index="4" response="0100000" foes="0100000" cont="0"/>
        <request index="5" response="0000000" foes="0010000" cont="0"/>
        <request index="6" response="0000011" foes="0001111" cont="1"/>
    </junction>

    <junction id=":J1_20_0" type="internal" x="19.12" y="55.26" incLanes=":J1_5_0 E0_0" intLanes=":J1_1_0 :J1_2_0 :J1_6_0 :J1_7_0 :J1_8_0 :J1_11_0 :J1_12_0 :J1_14_0 :J1_15_0 :J1_16_0 :J1_17_0 :J1_18_0"/>
    <junction id=":J1_21_0" type="internal" x="12.56" y="53.41" incLanes=":J1_19_0 -E1_0" intLanes=":J1_1_0 :J1_2_0 :J1_3_0 :J1_4_0 :J1_6_0 :J1_7_0 :J1_11_0 :J1_12_0 :J1_14_0 :J1_15_0"/>
    <junction id=":J2_16_0" type="internal" x="58.83" y="54.09" incLanes=":J2_7_0 E1_0" intLanes=":J2_2_0 :J2_3_0 :J2_9_0 :J2_10_0 :J2_11_0 :J2_12_0 :J2_13_0"/>
    <junction id=":J2_17_0" type="internal" x="52.28" y="52.28" incLanes=":J2_14_0 -E2_0" intLanes=":J2_2_0 :J2_3_0 :J2_4_0 :J2_5_0 :J2_6_0 :J2_9_0 :J2_10_0 :J2_11_0"/>
    <junction id=":J2_18_0" type="internal" x="48.25" y="53.33" incLanes=":J2_15_0 -E2_0" intLanes=":J2_0_0 :J2_1_0 :J2_5_0 :J2_6_0 :J2_10_0 :J2_11_0"/>
    <junction id=":J4_4_0" type="internal" x="49.61" y="27.25" incLanes=":J4_1_0 -E3_0" intLanes=":J4_2_0 :J4_3_0"/>
    <junction id=":J7_7_0" type="internal" x="16.98" y="31.93" incLanes=":J7_6_0 -E8_0" intLanes=":J7_0_0 :J7_1_0 :J7_2_0 :J7_3_0"/>

    <connection from="-E1" to="E6" fromLane="0" toLane="0" via=":J1_3_0" dir="r" state="M"/>
    <connection from="-E1" to="-E0" fromLane="0" toLane="0" via=":J1_4_0" dir="s" state="M"/>
    <connection from="-E1" to="E7" fromLane="0" toLane="0" via=":J1_5_0" dir="l" state="m"/>
    <connection from="-E10" to="E6" fromLane="0" toLane="0" via=":J1_6_0" dir="r" state="m"/>
    <connection from="-E10" to="-E0" fromLane="0" toLane="0" via=":J1_7_0" dir="s" state="m"/>
    <connection from="-E10" to="E7" fromLane="0" toLane="0" via=":J1_8_0" dir="l" state="m"/>
    <connection from="-E10" to="E1" fromLane="0" toLane="0" via=":J1_9_0" dir="t" state="m"/>
    <connection from="-E2" to="-E5" fromLane="0" toLane="0" via=":J2_4_0" dir="r" state="M"/>
    <connection from="-E2" to="-E10" fromLane="0" toLane="0" via=":J2_5_0" dir="s" state="M"/>
    <connection from="-E2" to="-E1" fromLane="0" toLane="0" via=":J2_6_0" dir="s" state="M"/>
    <connection from="-E2" to="-E3" fromLane="0" toLane="0" via=":J2_7_0" dir="l" state="m"/>
    <connection from="-E3" to="-E80" fromLane="0" toLane="0" via=":J4_2_0" dir="r" state="M"/>
    <connection from="-E3" to="-E8" fromLane="0" toLane="0" via=":J4_3_0" dir="R" state="M"/>
    <connection from="-E4" to="E5" fromLane="0" toLane="0" via=":J5_1_0" dir="r" state="M"/>
    <connection from="-E5" to="E4" fromLane="0" toLane="0" via=":J5_0_0" dir="l" state="M"/>
    <connection from="-E6" to="-E0" fromLane="0" toLane="0" via=":J1_0_0" dir="r" state="m"/>
    <connection from="-E6" to="E7" fromLane="0" toLane="0" via=":J1_1_0" dir="s" state="m"/>
    <connection from="-E6" to="E1" fromLane="0" toLane="0" via=":J1_2_0" dir="l" state="m"/>
    <connection from="-E7" to="E1" fromLane="0" toLane="0" via=":J1_10_0" dir="r" state="m"/>
    <connection from="-E7" to="E6" fromLane="0" toLane="0" via=":J1_11_0" dir="s" state="m"/>
    <connection from="-E7" to="-E0" fromLane="0" toLane="0" via=":J1_12_0" dir="l" state="m"/>
    <connection from="-E70" to="E1" fromLane="0" toLane="0" via=":J1_13_0" dir="r" state="m"/>
    <connection from="-E70" to="E6" fromLane="0" toLane="0" via=":J1_14_0" dir="s" state="m"/>
    <connection from="-E70" to="-E0" fromLane="0" toLane="0" via=":J1_15_0" dir="L" state="m"/>
    <connection from="-E70" to="E7" fromLane="0" toLane="0" via=":J1_16_0" dir="t" state="m"/>
    <connection from="-E8" to="-E70" fromLane="0" toLane="0" via=":J7_0_0" dir="r" state="M"/>
    <connection from="-E8" to="-E7" fromLane="0" toLane="0" via=":J7_1_0" dir="r" state="M"/>
    <connection from="-E80" to="-E70" fromLane="0" toLane="0" via=":J7_2_0" dir="r" state="m"/>
    <connection from="-E80" to="-E7" fromLane="0" toLane="0" via=":J7_3_0" dir="r" state="m"/>
    <connection from="-E80" to="E8" fromLane="0" toLane="0" via=":J7_4_0" dir="t" state="m"/>
    <connection from="E0" to="E7" fromLane="0" toLane="0" via=":J1_17_0" dir="r" state="M"/>
    <connection from="E0" to="E1" fromLane="0" toLane="0" via=":J1_18_0" dir="s" state="M"/>
    <connection from="E0" to="E6" fromLane="0" toLane="0" via=":J1_19_0" dir="l" state="m"/>
    <connection from="E1" to="-E3" fromLane="0" toLane="0" via=":J2_12_0" dir="r" state="M"/>
    <connection from="E1" to="E2" fromLane="0" toLane="0" via=":J2_13_0" dir="s" state="M"/>
    <connection from="E1" to="-E5" fromLane="0" toLane="0" via=":J2_14_0" dir="L" state="m"/>
    <connection from="E1" to="-E10" fromLane="0" toLane="0" via=":J2_15_0" dir="t" state="m"/>
    <connection from="E3" to="E2" fromLane="0" toLane="0" via=":J2_8_0" dir="r" state="m"/>
    <connection from="E3" to="-E5" fromLane="0" toLane="0" via=":J2_9_0" dir="s" state="m"/>
    <connection from="E3" to="-E10" fromLane="0" toLane="0" via=":J2_10_0" dir="L" state="m"/>
    <connection from="E3" to="-E1" fromLane="0" toLane="0" via=":J2_11_0" dir="l" state="m"/>
    <connection from="E4" to="-E6" fromLane="0" toLane="0" via=":J6_0_0" dir="l" state="M"/>
    <connection from="E5" to="-E10" fromLane="0" toLane="0" via=":J2_0_0" dir="r" state="m"/>
    <connection from="E5" to="-E1" fromLane="0" toLane="0" via=":J2_1_0" dir="R" state="m"/>
    <connection from="E5" to="-E3" fromLane="0" toLane="0" via=":J2_2_0" dir="s" state="m"/>
    <connection from="E5" to="E2" fromLane="0" toLane="0" via=":J2_3_0" dir="l" state="m"/>
    <connection from="E6" to="-E4" fromLane="0" toLane="0" via=":J6_1_0" dir="r" state="M"/>
    <connection from="E7" to="E8" fromLane="0" toLane="0" via=":J7_5_0" dir="l" state="M"/>
    <connection from="E7" to="-E70" fromLane="0" toLane="0" via=":J7_6_0" dir="t" state="m"/>
    <connection from="E8" to="E3" fromLane="0" toLane="0" via=":J4_0_0" dir="L" state="M"/>
    <connection from="E8" to="-E80" fromLane="0" toLane="0" via=":J4_1_0" dir="t" state="m"/>

    <connection from=":J1_0" to="-E0" fromLane="0" toLane="0" dir="r" state="M"/>
    <connection from=":J1_1" to="E7" fromLane="0" toLane="0" dir="s" state="M"/>
    <connection from=":J1_2" to="E1" fromLane="0" toLane="0" dir="l" state="M"/>
    <connection from=":J1_3" to="E6" fromLane="0" toLane="0" dir="r" state="M"/>
    <connection from=":J1_4" to="-E0" fromLane="0" toLane="0" dir="s" state="M"/>
    <connection from=":J1_5" to="E7" fromLane="0" toLane="0" via=":J1_20_0" dir="l" state="m"/>
    <connection from=":J1_20" to="E7" fromLane="0" toLane="0" dir="l" state="M"/>
    <connection from=":J1_6" to="E6" fromLane="0" toLane="0" dir="r" state="M"/>
    <connection from=":J1_7" to="-E0" fromLane="0" toLane="0" dir="s" state="M"/>
    <connection from=":J1_8" to="E7" fromLane="0" toLane="0" dir="l" state="M"/>
    <connection from=":J1_9" to="E1" fromLane="0" toLane="0" dir="t" state="M"/>
    <connection from=":J1_10" to="E1" fromLane="0" toLane="0" dir="r" state="M"/>
    <connection from=":J1_11" to="E6" fromLane="0" toLane="0" dir="s" state="M"/>
    <connection from=":J1_12" to="-E0" fromLane="0" toLane="0" dir="l" state="M"/>
    <connection from=":J1_13" to="E1" fromLane="0" toLane="0" dir="r" state="M"/>
    <connection from=":J1_14" to="E6" fromLane="0" toLane="0" dir="s" state="M"/>
    <connection from=":J1_15" to="-E0" fromLane="0" toLane="0" dir="L" state="M"/>
    <connection from=":J1_16" to="E7" fromLane="0" toLane="0" dir="t" state="M"/>
    <connection from=":J1_17" to="E7" fromLane="0" toLane="0" dir="r" state="M"/>
    <connection from=":J1_18" to="E1" fromLane="0" toLane="0" dir="s" state="M"/>
    <connection from=":J1_19" to="E6" fromLane="0" toLane="0" via=":J1_21_0" dir="l" state="m"/>
    <connection from=":J1_21" to="E6" fromLane="0" toLane="0" dir="l" state="M"/>
    <connection from=":J2_0" to="-E10" fromLane="0" toLane="0" dir="r" state="M"/>
    <connection from=":J2_1" to="-E1" fromLane="0" toLane="0" dir="R" state="M"/>