<nodes xmlns:xsi="http://www.w3.org/2001/XMLSchema-instance" version="1.9" xsi:noNamespaceSchemaLocation="http://sumo.dlr.de/xsd/nodes_file.xsd">
    <location netOffset="0.00,0.00" convBoundary="0.00,-30.00,160.00,30.00" origBoundary="-10000000000.00,-10000000000.00,10000000000.00,10000000000.00" projParameter="!" />

    <node id="J0" x="0.00" y="0.00" type="dead_end" />
    <node id="J1" x="40" y="0.00" type="traffic_light" tl="J1" />
    <node id="J10" x="120.00" y="-30.00" type="dead_end" />
    <node id="J2" x="80.00" y="0.00" type="traffic_light" tl="J2" />
    <node id="J3" x="120.00" y="0.00" type="traffic_light" tl="J3" />
    <node id="J4" x="40.00" y="30.00" type="dead_end" />
    <node id="J5" x="80.00" y="30.00" type="dead_end" />
    <node id="J6" x="40.00" y="-30.00" type="dead_end" />
    <node id="J7" x="80.00" y="-30.00" type="dead_end" />
    <node id="J8" x="160.00" y="0.00" type="dead_end" />
    <node id="J9" x="120.00" y="30.00" type="dead_end" />
</nodes>