<?xml version="1.0" encoding="UTF-8"?>

<!-- generated on 2022-11-15 10:17:00 by Eclipse SUMO netedit Version 1.15.0
<configuration xmlns:xsi="http://www.w3.org/2001/XMLSchema-instance" xsi:noNamespaceSchemaLocation="http://sumo.dlr.de/xsd/netconvertConfiguration.xsd">

    <input>
        <sumo-net-file value="C:\Users\bking\Documents\Uni\Research\Thesis\Simulation1\networkVariable.net.xml"/>
    </input>

    <output>
        <output-file value="C:\Users\bking\Documents\Uni\Research\Thesis\Simulation1\networkVariable.net.xml"/>
    </output>

    <processing>
        <geometry.min-radius.fix.railways value="false"/>
        <geometry.max-grade.fix value="false"/>
        <offset.disable-normalization value="true"/>
        <lefthand value="0"/>
    </processing>

    <junctions>
        <no-turnarounds value="true"/>
        <junctions.corner-detail value="5"/>
        <junctions.limit-turn-speed value="5.50"/>
        <rectangular-lane-cut value="0"/>
    </junctions>

    <pedestrian>
        <walkingareas value="0"/>
    </pedestrian>

</configuration>
-->

<connections version="1.9" xmlns:xsi="http://www.w3.org/2001/XMLSchema-instance" xsi:noNamespaceSchemaLocation="http://sumo.dlr.de/xsd/connections_file.xsd">
    <connection from="-E0"/>

    <connection from="-E1" to="-E4" fromLane="0" toLane="0"/>
    <connection from="-E1" to="-E2" fromLane="0" toLane="0"/>
    <connection from="-E1" to="-E6" fromLane="0" toLane="0"/>

    <connection from="-E2" to="E3" fromLane="0" toLane="0"/>
    <connection from="-E2" to="-E0" fromLane="0" toLane="0"/>
    <connection from="-E2" to="-E5" fromLane="0" toLane="0"/>

    <connection from="-E3" to="-E0" fromLane="0" toLane="0"/>
    <connection from="-E3" to="-E5" fromLane="0" toLane="0"/>
    <connection from="-E3" to="E2" fromLane="0" toLane="0"/>

    <connection from="-E4"/>

    <connection from="-E5"/>

    <connection from="-E6"/>

    <connection from="-E7" to="-E8" fromLane="0" toLane="0"/>
    <connection from="-E7" to="-E1" fromLane="0" toLane="0"/>
    <connection from="-E7" to="-E9" fromLane="0" toLane="0"/>

    <connection from="-E8"/>

    <connection from="-E9"/>

    <connection from="E0" to="-E5" fromLane="0" toLane="0"/>
    <connection from="E0" to="E2" fromLane="0" toLane="0"/>
    <connection from="E0" to="E3" fromLane="0" toLane="0"/>

    <connection from="E1" to="-E9" fromLane="0" toLane="0"/>
    <connection from="E1" to="E7" fromLane="0" toLane="0"/>
    <connection from="E1" to="-E8" fromLane="0" toLane="0"/>

    <connection from="E2" to="-E6" fromLane="0" toLane="0"/>
    <connection from="E2" to="E1" fromLane="0" toLane="0"/>
    <connection from="E2" to="-E4" fromLane="0" toLane="0"/>

    <connection from="E3"/>

    <connection from="E4" to="-E2" fromLane="0" toLane="0"/>
    <connection from="E4" to="-E6" fromLane="0" toLane="0"/>
    <connection from="E4" to="E1" fromLane="0" toLane="0"/>

    <connection from="E5" to="E2" fromLane="0" toLane="0"/>
    <connection from="E5" to="E3" fromLane="0" toLane="0"/>
    <connection from="E5" to="-E0" fromLane="0" toLane="0"/>

    <connection from="E6" to="E1" fromLane="0" toLane="0"/>
    <connection from="E6" to="-E4" fromLane="0" toLane="0"/>
    <connection from="E6" to="-E2" fromLane="0" toLane="0"/>

    <connection from="E7"/>

    <connection from="E8" to="-E1" fromLane="0" toLane="0"/>
    <connection from="E8" to="-E9" fromLane="0" toLane="0"/>
    <connection from="E8" to="E7" fromLane="0" toLane="0"/>

    <connection from="E9" to="E7" fromLane="0" toLane="0"/>
    <connection from="E9" to="-E8" fromLane="0" toLane="0"/>
    <connection from="E9" to="-E1" fromLane="0" toLane="0"/>

</connections>
