<?xml version="1.0" encoding="UTF-8"?>

<!-- generated on 2022-11-26 11:54:15 by Eclipse SUMO netedit Version 1.15.0
<configuration xmlns:xsi="http://www.w3.org/2001/XMLSchema-instance" xsi:noNamespaceSchemaLocation="http://sumo.dlr.de/xsd/netconvertConfiguration.xsd">

    <input>
        <sumo-net-file value="C:\Users\bking\Documents\Uni\Research\Thesis\Simulations\No Traffic Network\networkLarge.net.xml"/>
    </input>

    <output>
        <output-file value="C:\Users\bking\Documents\Uni\Research\Thesis\Simulations\No Traffic Network\networkLarge.net.xml"/>
    </output>

    <processing>
        <geometry.min-radius.fix.railways value="false"/>
        <geometry.max-grade.fix value="false"/>
        <offset.disable-normalization value="true"/>
        <lefthand value="0"/>
    </processing>

    <junctions>
        <no-turnarounds value="true"/>
        <junctions.corner-detail value="5"/>
        <junctions.limit-turn-speed value="5.50"/>
        <rectangular-lane-cut value="0"/>
    </junctions>

    <pedestrian>
        <walkingareas value="0"/>
    </pedestrian>

    <netedit>
        <route-files value="C:\Users\bking\Documents\Uni\Research\Thesis\Simulations\No Traffic Network\routingLarge.rou.xml"/>
    </netedit>

</configuration>
-->

<net version="1.9" junctionCornerDetail="5" limitTurnSpeed="5.50" xmlns:xsi="http://www.w3.org/2001/XMLSchema-instance" xsi:noNamespaceSchemaLocation="http://sumo.dlr.de/xsd/net_file.xsd">

    <location netOffset="0.00,0.00" convBoundary="0.00,0.00,17000.00,0.00" origBoundary="-10000000000.00,-10000000000.00,10000000000.00,10000000000.00" projParameter="!"/>

    <edge id=":J1_0" function="internal">
        <lane id=":J1_0_0" index="0" speed="13.89" length="0.10" shape="1000.00,1.60 1000.00,1.60"/>
    </edge>
    <edge id=":J1_1" function="internal">
        <lane id=":J1_1_0" index="0" speed="13.89" length="0.10" shape="1000.00,-1.60 1000.00,-1.60"/>
    </edge>
    <edge id=":J10_0" function="internal">
        <lane id=":J10_0_0" index="0" speed="13.89" length="0.10" shape="10000.00,1.60 10000.00,1.60"/>
    </edge>
    <edge id=":J10_1" function="internal">
        <lane id=":J10_1_0" index="0" speed="13.89" length="0.10" shape="10000.00,-1.60 10000.00,-1.60"/>
    </edge>
    <edge id=":J11_0" function="internal">
        <lane id=":J11_0_0" index="0" speed="13.89" length="0.10" shape="11000.00,1.60 11000.00,1.60"/>
    </edge>
    <edge id=":J11_1" function="internal">
        <lane id=":J11_1_0" index="0" speed="13.89" length="0.10" shape="11000.00,-1.60 11000.00,-1.60"/>
    </edge>
    <edge id=":J12_0" function="internal">
        <lane id=":J12_0_0" index="0" speed="13.89" length="0.10" shape="12000.00,1.60 12000.00,1.60"/>
    </edge>
    <edge id=":J12_1" function="internal">
        <lane id=":J12_1_0" index="0" speed="13.89" length="0.10" shape="12000.00,-1.60 12000.00,-1.60"/>
    </edge>
    <edge id=":J13_0" function="internal">
        <lane id=":J13_0_0" index="0" speed="13.89" length="0.10" shape="13000.00,1.60 13000.00,1.60"/>
    </edge>
    <edge id=":J13_1" function="internal">
        <lane id=":J13_1_0" index="0" speed="13.89" length="0.10" shape="13000.00,-1.60 13000.00,-1.60"/>
    </edge>
    <edge id=":J14_0" function="internal">
        <lane id=":J14_0_0" index="0" speed="13.89" length="0.10" shape="14000.00,1.60 14000.00,1.60"/>
    </edge>
    <edge id=":J14_1" function="internal">
        <lane id=":J14_1_0" index="0" speed="13.89" length="0.10" shape="14000.00,-1.60 14000.00,-1.60"/>
    </edge>
    <edge id=":J15_0" function="internal">
        <lane id=":J15_0_0" index="0" speed="13.89" length="0.10" shape="15000.00,1.60 15000.00,1.60"/>
    </edge>
    <edge id=":J15_1" function="internal">
        <lane id=":J15_1_0" index="0" speed="13.89" length="0.10" shape="15000.00,-1.60 15000.00,-1.60"/>
    </edge>
    <edge id=":J16_0" function="internal">
        <lane id=":J16_0_0" index="0" speed="13.89" length="0.10" shape="16000.00,1.60 16000.00,1.60"/>
    </edge>
    <edge id=":J16_1" function="internal">
        <lane id=":J16_1_0" index="0" speed="13.89" length="0.10" shape="16000.00,-1.60 16000.00,-1.60"/>
    </edge>
    <edge id=":J2_0" function="internal">
        <lane id=":J2_0_0" index="0" speed="13.89" length="0.10" shape="4000.00,1.60 4000.00,1.60"/>
    </edge>
    <edge id=":J2_1" function="internal">
        <lane id=":J2_1_0" index="0" speed="13.89" length="0.10" shape="4000.00,-1.60 4000.00,-1.60"/>
    </edge>
    <edge id=":J3_0" function="internal">
        <lane id=":J3_0_0" index="0" speed="13.89" length="0.10" shape="2000.00,1.60 2000.00,1.60"/>
    </edge>
    <edge id=":J3_1" function="internal">
        <lane id=":J3_1_0" index="0" speed="13.89" length="0.10" shape="2000.00,-1.60 2000.00,-1.60"/>
    </edge>
    <edge id=":J4_0" function="internal">
        <lane id=":J4_0_0" index="0" speed="13.89" length="0.10" shape="3000.00,1.60 3000.00,1.60"/>
    </edge>
    <edge id=":J4_1" function="internal">
        <lane id=":J4_1_0" index="0" speed="13.89" length="0.10" shape="3000.00,-1.60 3000.00,-1.60"/>
    </edge>
    <edge id=":J5_0" function="internal">
        <lane id=":J5_0_0" index="0" speed="13.89" length="0.10" shape="5000.00,1.60 5000.00,1.60"/>
    </edge>
    <edge id=":J5_1" function="internal">
        <lane id=":J5_1_0" index="0" speed="13.89" length="0.10" shape="5000.00,-1.60 5000.00,-1.60"/>
    </edge>
    <edge id=":J6_0" function="internal">
        <lane id=":J6_0_0" index="0" speed="13.89" length="0.10" shape="6000.00,1.60 6000.00,1.60"/>
    </edge>
    <edge id=":J6_1" function="internal">
        <lane id=":J6_1_0" index="0" speed="13.89" length="0.10" shape="6000.00,-1.60 6000.00,-1.60"/>
    </edge>
    <edge id=":J7_0" function="internal">
        <lane id=":J7_0_0" index="0" speed="13.89" length="0.10" shape="7000.00,1.60 7000.00,1.60"/>
    </edge>
    <edge id=":J7_1" function="internal">
        <lane id=":J7_1_0" index="0" speed="13.89" length="0.10" shape="7000.00,-1.60 7000.00,-1.60"/>
    </edge>
    <edge id=":J8_0" function="internal">
        <lane id=":J8_0_0" index="0" speed="13.89" length="0.10" shape="8000.00,1.60 8000.00,1.60"/>
    </edge>
    <edge id=":J8_1" function="internal">
        <lane id=":J8_1_0" index="0" speed="13.89" length="0.10" shape="8000.00,-1.60 8000.00,-1.60"/>
    </edge>
    <edge id=":J9_0" function="internal">
        <lane id=":J9_0_0" index="0" speed="13.89" length="0.10" shape="9000.00,1.60 9000.00,1.60"/>
    </edge>
    <edge id=":J9_1" function="internal">
        <lane id=":J9_1_0" index="0" speed="13.89" length="0.10" shape="9000.00,-1.60 9000.00,-1.60"/>
    </edge>

    <edge id="-E0" from="J1" to="J0" priority="-1">
        <lane id="-E0_0" index="0" speed="13.89" length="1000.00" shape="1000.00,1.60 0.00,1.60"/>
    </edge>
    <edge id="-E1" from="J3" to="J1" priority="-1">
        <lane id="-E1_0" index="0" speed="13.89" length="1000.00" shape="2000.00,1.60 1000.00,1.60"/>
    </edge>
    <edge id="-E10" from="J11" to="J10" priority="-1">
        <lane id="-E10_0" index="0" speed="13.89" length="1000.00" shape="11000.00,1.60 10000.00,1.60"/>
    </edge>
    <edge id="-E11" from="J12" to="J11" priority="-1">
        <lane id="-E11_0" index="0" speed="13.89" length="1000.00" shape="12000.00,1.60 11000.00,1.60"/>
    </edge>
    <edge id="-E12" from="J13" to="J12" priority="-1">
        <lane id="-E12_0" index="0" speed="13.89" length="1000.00" shape="13000.00,1.60 12000.00,1.60"/>
    </edge>
    <edge id="-E13" from="J14" to="J13" priority="-1">
        <lane id="-E13_0" index="0" speed="13.89" length="1000.00" shape="14000.00,1.60 13000.00,1.60"/>
    </edge>
    <edge id="-E14" from="J15" to="J14" priority="-1">
        <lane id="-E14_0" index="0" speed="13.89" length="1000.00" shape="15000.00,1.60 14000.00,1.60"/>
    </edge>
    <edge id="-E15" from="J16" to="J15" priority="-1">
        <lane id="-E15_0" index="0" speed="13.89" length="1000.00" shape="16000.00,1.60 15000.00,1.60"/>
    </edge>
    <edge id="-E16" from="J17" to="J16" priority="-1">
        <lane id="-E16_0" index="0" speed="13.89" length="1000.00" shape="17000.00,1.60 16000.00,1.60"/>
    </edge>
    <edge id="-E2" from="J4" to="J3" priority="-1">
        <lane id="-E2_0" index="0" speed="13.89" length="1000.00" shape="3000.00,1.60 2000.00,1.60"/>
    </edge>
    <edge id="-E3" from="J2" to="J4" priority="-1">
        <lane id="-E3_0" index="0" speed="13.89" length="1000.00" shape="4000.00,1.60 3000.00,1.60"/>
    </edge>
    <edge id="-E4" from="J5" to="J2" priority="-1">
        <lane id="-E4_0" index="0" speed="13.89" length="1000.00" shape="5000.00,1.60 4000.00,1.60"/>
    </edge>
    <edge id="-E5" from="J6" to="J5" priority="-1">
        <lane id="-E5_0" index="0" speed="13.89" length="1000.00" shape="6000.00,1.60 5000.00,1.60"/>
    </edge>
    <edge id="-E6" from="J7" to="J6" priority="-1">
        <lane id="-E6_0" index="0" speed="13.89" length="1000.00" shape="7000.00,1.60 6000.00,1.60"/>
    </edge>
    <edge id="-E7" from="J8" to="J7" priority="-1">
        <lane id="-E7_0" index="0" speed="13.89" length="1000.00" shape="8000.00,1.60 7000.00,1.60"/>
    </edge>
    <edge id="-E8" from="J9" to="J8" priority="-1">
        <lane id="-E8_0" index="0" speed="13.89" length="1000.00" shape="9000.00,1.60 8000.00,1.60"/>
    </edge>
    <edge id="-E9" from="J10" to="J9" priority="-1">
        <lane id="-E9_0" index="0" speed="13.89" length="1000.00" shape="10000.00,1.60 9000.00,1.60"/>
    </edge>
    <edge id="E0" from="J0" to="J1" priority="-1">
        <lane id="E0_0" index="0" speed="13.89" length="1000.00" shape="0.00,-1.60 1000.00,-1.60"/>
    </edge>
    <edge id="E1" from="J1" to="J3" priority="-1">
        <lane id="E1_0" index="0" speed="13.89" length="1000.00" shape="1000.00,-1.60 2000.00,-1.60"/>
    </edge>
    <edge id="E10" from="J10" to="J11" priority="-1">
        <lane id="E10_0" index="0" speed="13.89" length="1000.00" shape="10000.00,-1.60 11000.00,-1.60"/>
    </edge>
    <edge id="E11" from="J11" to="J12" priority="-1">
        <lane id="E11_0" index="0" speed="13.89" length="1000.00" shape="11000.00,-1.60 12000.00,-1.60"/>
    </edge>
    <edge id="E12" from="J12" to="J13" priority="-1">
        <lane id="E12_0" index="0" speed="13.89" length="1000.00" shape="12000.00,-1.60 13000.00,-1.60"/>
    </edge>
    <edge id="E13" from="J13" to="J14" priority="-1">
        <lane id="E13_0" index="0" speed="13.89" length="1000.00" shape="13000.00,-1.60 14000.00,-1.60"/>
    </edge>
    <edge id="E14" from="J14" to="J15" priority="-1">
        <lane id="E14_0" index="0" speed="13.89" length="1000.00" shape="14000.00,-1.60 15000.00,-1.60"/>
    </edge>
    <edge id="E15" from="J15" to="J16" priority="-1">
        <lane id="E15_0" index="0" speed="13.89" length="1000.00" shape="15000.00,-1.60 16000.00,-1.60"/>
    </edge>
    <edge id="E16" from="J16" to="J17" priority="-1">
        <lane id="E16_0" index="0" speed="13.89" length="1000.00" shape="16000.00,-1.60 17000.00,-1.60"/>
    </edge>
    <edge id="E2" from="J3" to="J4" priority="-1">
        <lane id="E2_0" index="0" speed="13.89" length="1000.00" shape="2000.00,-1.60 3000.00,-1.60"/>
    </edge>
    <edge id="E3" from="J4" to="J2" priority="-1">
        <lane id="E3_0" index="0" speed="13.89" length="1000.00" shape="3000.00,-1.60 4000.00,-1.60"/>
    </edge>
    <edge id="E4" from="J2" to="J5" priority="-1">
        <lane id="E4_0" index="0" speed="13.89" length="1000.00" shape="4000.00,-1.60 5000.00,-1.60"/>
    </edge>
    <edge id="E5" from="J5" to="J6" priority="-1">
        <lane id="E5_0" index="0" speed="13.89" length="1000.00" shape="5000.00,-1.60 6000.00,-1.60"/>
    </edge>
    <edge id="E6" from="J6" to="J7" priority="-1">
        <lane id="E6_0" index="0" speed="13.89" length="1000.00" shape="6000.00,-1.60 7000.00,-1.60"/>
    </edge>
    <edge id="E7" from="J7" to="J8" priority="-1">
        <lane id="E7_0" index="0" speed="13.89" length="1000.00" shape="7000.00,-1.60 8000.00,-1.60"/>
    </edge>
    <edge id="E8" from="J8" to="J9" priority="-1">
        <lane id="E8_0" index="0" speed="13.89" length="1000.00" shape="8000.00,-1.60 9000.00,-1.60"/>
    </edge>
    <edge id="E9" from="J9" to="J10" priority="-1">
        <lane id="E9_0" index="0" speed="13.89" length="1000.00" shape="9000.00,-1.60 10000.00,-1.60"/>
    </edge>

    <tlLogic id="J1" type="static" programID="0" offset="0">
        <phase duration="82" state="GG"/>
        <phase duration="3"  state="yy"/>
        <phase duration="5"  state="rr"/>
    </tlLogic>
    <tlLogic id="J10" type="static" programID="0" offset="0">
        <phase duration="82" state="GG"/>
        <phase duration="3"  state="yy"/>
        <phase duration="5"  state="rr"/>
    </tlLogic>
    <tlLogic id="J11" type="static" programID="0" offset="0">
        <phase duration="82" state="GG"/>
        <phase duration="3"  state="yy"/>
        <phase duration="5"  state="rr"/>
    </tlLogic>
    <tlLogic id="J12" type="static" programID="0" offset="0">
        <phase duration="82" state="GG"/>
        <phase duration="3"  state="yy"/>
        <phase duration="5"  state="rr"/>
    </tlLogic>
    <tlLogic id="J13" type="static" programID="0" offset="0">
        <phase duration="82" state="GG"/>
        <phase duration="3"  state="yy"/>
        <phase duration="5"  state="rr"/>
    </tlLogic>
    <tlLogic id="J14" type="static" programID="0" offset="0">
        <phase duration="82" state="GG"/>
        <phase duration="3"  state="yy"/>
        <phase duration="5"  state="rr"/>
    </tlLogic>
    <tlLogic id="J15" type="static" programID="0" offset="0">
        <phase duration="82" state="GG"/>
        <phase duration="3"  state="yy"/>
        <phase duration="5"  state="rr"/>
    </tlLogic>
    <tlLogic id="J16" type="static" programID="0" offset="0">
        <phase duration="82" state="GG"/>
        <phase duration="3"  state="yy"/>
        <phase duration="5"  state="rr"/>
    </tlLogic>
    <tlLogic id="J3" type="static" programID="0" offset="0">
        <phase duration="82" state="GG"/>
        <phase duration="3"  state="yy"/>
        <phase duration="5"  state="rr"/>
    </tlLogic>
    <tlLogic id="J4" type="static" programID="0" offset="0">
        <phase duration="82" state="GG"/>
        <phase duration="3"  state="yy"/>
        <phase duration="5"  state="rr"/>
    </tlLogic>
    <tlLogic id="J5" type="static" programID="0" offset="0">
        <phase duration="82" state="GG"/>
        <phase duration="3"  state="yy"/>
        <phase duration="5"  state="rr"/>
    </tlLogic>
    <tlLogic id="J6" type="static" programID="0" offset="0">
        <phase duration="82" state="GG"/>
        <phase duration="3"  state="yy"/>
        <phase duration="5"  state="rr"/>
    </tlLogic>
    <tlLogic id="J7" type="static" programID="0" offset="0">
        <phase duration="82" state="GG"/>
        <phase duration="3"  state="yy"/>
        <phase duration="5"  state="rr"/>
    </tlLogic>
    <tlLogic id="J8" type="static" programID="0" offset="0">
        <phase duration="82" state="GG"/>
        <phase duration="3"  state="yy"/>
        <phase duration="5"  state="rr"/>
    </tlLogic>
    <tlLogic id="J9" type="static" programID="0" offset="0">
        <phase duration="82" state="GG"/>
        <phase duration="3"  state="yy"/>
        <phase duration="5"  state="rr"/>
    </tlLogic>

    <junction id="J0" type="dead_end" x="0.00" y="0.00" incLanes="-E0_0" intLanes="" shape="0.00,0.00 0.00,3.20 0.00,0.00"/>
    <junction id="J1" type="traffic_light" x="1000.00" y="0.00" incLanes="-E1_0 E0_0" intLanes=":J1_0_0 :J1_1_0" shape="1000.00,3.20 1000.00,-3.20 1000.00,3.20">
        <request index="0" response="00" foes="00" cont="0"/>
        <request index="1" response="00" foes="00" cont="0"/>
    </junction>
    <junction id="J10" type="traffic_light" x="10000.00" y="0.00" incLanes="-E10_0 E9_0" intLanes=":J10_0_0 :J10_1_0" shape="10000.00,3.20 10000.00,-3.20 10000.00,3.20">
        <request index="0" response="00" foes="00" cont="0"/>
        <request index="1" response="00" foes="00" cont="0"/>
    </junction>
    <junction id="J11" type="traffic_light" x="11000.00" y="0.00" incLanes="-E11_0 E10_0" intLanes=":J11_0_0 :J11_1_0" shape="11000.00,3.20 11000.00,-3.20 11000.00,3.20">
        <request index="0" response="00" foes="00" cont="0"/>
        <request index="1" response="00" foes="00" cont="0"/>
    </junction>
    <junction id="J12" type="traffic_light" x="12000.00" y="0.00" incLanes="-E12_0 E11_0" intLanes=":J12_0_0 :J12_1_0" shape="12000.00,3.20 12000.00,-3.20 12000.00,3.20">
        <request index="0" response="00" foes="00" cont="0"/>
        <request index="1" response="00" foes="00" cont="0"/>
    </junction>
    <junction id="J13" type="traffic_light" x="13000.00" y="0.00" incLanes="-E13_0 E12_0" intLanes=":J13_0_0 :J13_1_0" shape="13000.00,3.20 13000.00,-3.20 13000.00,3.20">
        <request index="0" response="00" foes="00" cont="0"/>
        <request index="1" response="00" foes="00" cont="0"/>
    </junction>
    <junction id="J14" type="traffic_light" x="14000.00" y="0.00" incLanes="-E14_0 E13_0" intLanes=":J14_0_0 :J14_1_0" shape="14000.00,3.20 14000.00,-3.20 14000.00,3.20">
        <request index="0" response="00" foes="00" cont="0"/>
        <request index="1" response="00" foes="00" cont="0"/>
    </junction>
    <junction id="J15" type="traffic_light" x="15000.00" y="0.00" incLanes="-E15_0 E14_0" intLanes=":J15_0_0 :J15_1_0" shape="15000.00,3.20 15000.00,-3.20 15000.00,3.20">
        <request index="0" response="00" foes="00" cont="0"/>
        <request index="1" response="00" foes="00" cont="0"/>
    </junction>
    <junction id="J16" type="traffic_light" x="16000.00" y="0.00" incLanes="-E16_0 E15_0" intLanes=":J16_0_0 :J16_1_0" shape="16000.00,3.20 16000.00,-3.20 16000.00,3.20">
        <request index="0" response="00" foes="00" cont="0"/>
        <request index="1" response="00" foes="00" cont="0"/>
    </junction>
    <junction id="J17" type="dead_end" x="17000.00" y="0.00" incLanes="E16_0" intLanes="" shape="17000.00,0.00 17000.00,-3.20 17000.00,0.00"/>
    <junction id="J2" type="priority" x="4000.00" y="0.00" incLanes="-E4_0 E3_0" intLanes=":J2_0_0 :J2_1_0" shape="4000.00,3.20 4000.00,-3.20 4000.00,3.20">
        <request index="0" response="00" foes="00" cont="0"/>
        <request index="1" response="00" foes="00" cont="0"/>
    </junction>
    <junction id="J3" type="traffic_light" x="2000.00" y="0.00" incLanes="-E2_0 E1_0" intLanes=":J3_0_0 :J3_1_0" shape="2000.00,3.20 2000.00,-3.20 2000.00,3.20">
        <request index="0" response="00" foes="00" cont="0"/>
        <request index="1" response="00" foes="00" cont="0"/>
    </junction>
    <junction id="J4" type="traffic_light" x="3000.00" y="0.00" incLanes="-E3_0 E2_0" intLanes=":J4_0_0 :J4_1_0" shape="3000.00,3.20 3000.00,-3.20 3000.00,3.20">
        <request index="0" response="00" foes="00" cont="0"/>
        <request index="1" response="00" foes="00" cont="0"/>
    </junction>
    <junction id="J5" type="traffic_light" x="5000.00" y="0.00" incLanes="-E5_0 E4_0" intLanes=":J5_0_0 :J5_1_0" shape="5000.00,3.20 5000.00,-3.20 5000.00,3.20">
        <request index="0" response="00" foes="00" cont="0"/>
        <request index="1" response="00" foes="00" cont="0"/>
    </junction>
    <junction id="J6" type="traffic_light" x="6000.00" y="0.00" incLanes="-E6_0 E5_0" intLanes=":J6_0_0 :J6_1_0" shape="6000.00,3.20 6000.00,-3.20 6000.00,3.20">
        <request index="0" response="00" foes="00" cont="0"/>
        <request index="1" response="00" foes="00" cont="0"/>
    </junction>
    <junction id="J7" type="traffic_light" x="7000.00" y="0.00" incLanes="-E7_0 E6_0" intLanes=":J7_0_0 :J7_1_0" shape="7000.00,3.20 7000.00,-3.20 7000.00,3.20">
        <request index="0" response="00" foes="00" cont="0"/>
        <request index="1" response="00" foes="00" cont="0"/>
    </junction>
    <junction id="J8" type="traffic_light" x="8000.00" y="0.00" incLanes="-E8_0 E7_0" intLanes=":J8_0_0 :J8_1_0" shape="8000.00,3.20 8000.00,-3.20 8000.00,3.20">
        <request index="0" response="00" foes="00" cont="0"/>
        <request index="1" response="00" foes="00" cont="0"/>
    </junction>
    <junction id="J9" type="traffic_light" x="9000.00" y="0.00" incLanes="-E9_0 E8_0" intLanes=":J9_0_0 :J9_1_0" shape="9000.00,3.20 9000.00,-3.20 9000.00,3.20">
        <request index="0" response="00" foes="00" cont="0"/>
        <request index="1" response="00" foes="00" cont="0"/>
    </junction>

    <connection from="-E1" to="-E0" fromLane="0" toLane="0" via=":J1_0_0" tl="J1" linkIndex="0" dir="s" state="O"/>
    <connection from="-E10" to="-E9" fromLane="0" toLane="0" via=":J10_0_0" tl="J10" linkIndex="0" dir="s" state="O"/>
    <connection from="-E11" to="-E10" fromLane="0" toLane="0" via=":J11_0_0" tl="J11" linkIndex="0" dir="s" state="O"/>
    <connection from="-E12" to="-E11" fromLane="0" toLane="0" via=":J12_0_0" tl="J12" linkIndex="0" dir="s" state="O"/>
    <connection from="-E13" to="-E12" fromLane="0" toLane="0" via=":J13_0_0" tl="J13" linkIndex="0" dir="s" state="O"/>
    <connection from="-E14" to="-E13" fromLane="0" toLane="0" via=":J14_0_0" tl="J14" linkIndex="0" dir="s" state="O"/>
    <connection from="-E15" to="-E14" fromLane="0" toLane="0" via=":J15_0_0" tl="J15" linkIndex="0" dir="s" state="O"/>
    <connection from="-E16" to="-E15" fromLane="0" toLane="0" via=":J16_0_0" tl="J16" linkIndex="0" dir="s" state="O"/>
    <connection from="-E2" to="-E1" fromLane="0" toLane="0" via=":J3_0_0" tl="J3" linkIndex="0" dir="s" state="O"/>
    <connection from="-E3" to="-E2" fromLane="0" toLane="0" via=":J4_0_0" tl="J4" linkIndex="0" dir="s" state="O"/>
    <connection from="-E4" to="-E3" fromLane="0" toLane="0" via=":J2_0_0" dir="s" state="M"/>
    <connection from="-E5" to="-E4" fromLane="0" toLane="0" via=":J5_0_0" tl="J5" linkIndex="0" dir="s" state="O"/>
    <connection from="-E6" to="-E5" fromLane="0" toLane="0" via=":J6_0_0" tl="J6" linkIndex="0" dir="s" state="O"/>
    <connection from="-E7" to="-E6" fromLane="0" toLane="0" via=":J7_0_0" tl="J7" linkIndex="0" dir="s" state="O"/>
    <connection from="-E8" to="-E7" fromLane="0" toLane="0" via=":J8_0_0" tl="J8" linkIndex="0" dir="s" state="O"/>
    <connection from="-E9" to="-E8" fromLane="0" toLane="0" via=":J9_0_0" tl="J9" linkIndex="0" dir="s" state="O"/>
    <connection from="E0" to="E1" fromLane="0" toLane="0" via=":J1_1_0" tl="J1" linkIndex="1" dir="s" state="O"/>
    <connection from="E1" to="E2" fromLane="0" toLane="0" via=":J3_1_0" dir="s" state="M"/>
    <connection from="E10" to="E11" fromLane="0" toLane="0" via=":J11_1_0" tl="J11" linkIndex="1" dir="s" state="O"/>
    <connection from="E11" to="E12" fromLane="0" toLane="0" via=":J12_1_0" tl="J12" linkIndex="1" dir="s" state="O"/>
    <connection from="E12" to="E13" fromLane="0" toLane="0" via=":J13_1_0" tl="J13" linkIndex="1" dir="s" state="O"/>
    <connection from="E13" to="E14" fromLane="0" toLane="0" via=":J14_1_0" tl="J14" linkIndex="1" dir="s" state="O"/>
    <connection from="E14" to="E15" fromLane="0" toLane="0" via=":J15_1_0" tl="J15" linkIndex="1" dir="s" state="O"/>
    <connection from="E15" to="E16" fromLane="0" toLane="0" via=":J16_1_0" tl="J16" linkIndex="1" dir="s" state="O"/>
    <connection from="E2" to="E3" fromLane="0" toLane="0" via=":J4_1_0" tl="J4" linkIndex="1" dir="s" state="O"/>
    <connection from="E3" to="E4" fromLane="0" toLane="0" via=":J2_1_0" dir="s" state="M"/>
    <connection from="E4" to="E5" fromLane="0" toLane="0" via=":J5_1_0" tl="J5" linkIndex="1" dir="s" state="O"/>
    <connection from="E5" to="E6" fromLane="0" toLane="0" via=":J6_1_0" tl="J6" linkIndex="1" dir="s" state="O"/>
    <connection from="E6" to="E7" fromLane="0" toLane="0" via=":J7_1_0" tl="J7" linkIndex="1" dir="s" state="O"/>
    <connection from="E7" to="E8" fromLane="0" toLane="0" via=":J8_1_0" tl="J8" linkIndex="1" dir="s" state="O"/>
    <connection from="E8" to="E9" fromLane="0" toLane="0" via=":J9_1_0" tl="J9" linkIndex="1" dir="s" state="O"/>
    <connection from="E9" to="E10" fromLane="0" toLane="0" via=":J10_1_0" tl="J10" linkIndex="1" dir="s" state="O"/>

    <connection from=":J1_0" to="-E0" fromLane="0" toLane="0" dir="s" state="M"/>
    <connection from=":J1_1" to="E1" fromLane="0" toLane="0" dir="s" state="M"/>
    <connection from=":J10_0" to="-E9" fromLane="0" toLane="0" dir="s" state="M"/>
    <connection from=":J10_1" to="E10" fromLane="0" toLane="0" dir="s" state="M"/>
    <connection from=":J11_0" to="-E10" fromLane="0" toLane="0" dir="s" state="M"/>
    <connection from=":J11_1" to="E11" fromLane="0" toLane="0" dir="s" state="M"/>
    <connection from=":J12_0" to="-E11" fromLane="0" toLane="0" dir="s" state="M"/>
    <connection from=":J12_1" to="E12" fromLane="0" toLane="0" dir="s" state="M"/>
    <connection from=":J13_0" to="-E12" fromLane="0" toLane="0" dir="s" state="M"/>
    <connection from=":J13_1" to="E13" fromLane="0" toLane="0" dir="s" state="M"/>
    <connection from=":J14_0" to="-E13" fromLane="0" toLane="0" dir="s" state="M"/>
    <connection from=":J14_1" to="E14" fromLane="0" toLane="0" dir="s" state="M"/>
    <connection from=":J15_0" to="-E14" fromLane="0" toLane="0" dir="s" state="M"/>
    <connection from=":J15_1" to="E15" fromLane="0" toLane="0" dir="s" state="M"/>
    <connection from=":J16_0" to="-E15" fromLane="0" toLane="0" dir="s" state="M"/>
    <connection from=":J16_1" to="E16" fromLane="0" toLane="0" dir="s" state="M"/>
    <connection from=":J2_0" to="-E3" fromLane="0" toLane="0" dir="s" state="M"/>
    <connection from=":J2_1" to="E4" fromLane="0" toLane="0" dir="s" state="M"/>
    <connection from=":J3_0" to="-E1" fromLane="0" toLane="0" dir="s" state="M"/>
    <connection from=":J3_1" to="E2" fromLane="0" toLane="0" dir="s" state="M"/>
    <connection from=":J4_0" to="-E2" fromLane="0" toLane="0" dir="s" state="M"/>
    <connection from=":J4_1" to="E3" fromLane="0" toLane="0" dir="s" state="M"/>
    <connection from=":J5_0" to="-E4" fromLane="0" toLane="0" dir="s" state="M"/>
    <connection from=":J5_1" to="E5" fromLane="0" toLane="0" dir="s" state="M"/>
    <connection from=":J6_0" to="-E5" fromLane="0" toLane="0" dir="s" state="M"/>
    <connection from=":J6_1" to="E6" fromLane="0" toLane="0" dir="s" state="M"/>
    <connection from=":J7_0" to="-E6" fromLane="0" toLane="0" dir="s" state="M"/>
    <connection from=":J7_1" to="E7" fromLane="0" toLane="0" dir="s" state="M"/>
    <connection from=":J8_0" to="-E7" fromLane="0" toLane="0" dir="s" state="M"/>
    <connection from=":J8_1" to="E8" fromLane="0" toLane="0" dir="s" state="M"/>
    <connection from=":J9_0" to="-E8" fromLane="0" toLane="0" dir="s" state="M"/>
    <connection from=":J9_1" to="E9" fromLane="0" toLane="0" dir="s" state="M"/>

</net>
