<?xml version="1.0" encoding="UTF-8"?>

<!-- generated on 2022-11-15 10:17:00 by Eclipse SUMO netedit Version 1.15.0
<configuration xmlns:xsi="http://www.w3.org/2001/XMLSchema-instance" xsi:noNamespaceSchemaLocation="http://sumo.dlr.de/xsd/netconvertConfiguration.xsd">

    <input>
        <sumo-net-file value="C:\Users\bking\Documents\Uni\Research\Thesis\Simulation1\networkVariable.net.xml"/>
    </input>

    <output>
        <output-file value="C:\Users\bking\Documents\Uni\Research\Thesis\Simulation1\networkVariable.net.xml"/>
    </output>

    <processing>
        <geometry.min-radius.fix.railways value="false"/>
        <geometry.max-grade.fix value="false"/>
        <offset.disable-normalization value="true"/>
        <lefthand value="0"/>
    </processing>

    <junctions>
        <no-turnarounds value="true"/>
        <junctions.corner-detail value="5"/>
        <junctions.limit-turn-speed value="5.50"/>
        <rectangular-lane-cut value="0"/>
    </junctions>

    <pedestrian>
        <walkingareas value="0"/>
    </pedestrian>

</configuration>
-->

<edges version="1.9" xmlns:xsi="http://www.w3.org/2001/XMLSchema-instance" xsi:noNamespaceSchemaLocation="http://sumo.dlr.de/xsd/edges_file.xsd">
    <edge id="-E0" from="J1" to="J0" priority="-1" numLanes="1" speed="13.89"/>
    <edge id="-E1" from="J3" to="J2" priority="-1" numLanes="1" speed="13.89"/>
    <edge id="-E2" from="J2" to="J1" priority="-1" numLanes="1" speed="13.89"/>
    <edge id="-E3" from="J4" to="J1" priority="-1" numLanes="1" speed="13.89"/>
    <edge id="-E4" from="J2" to="J5" priority="-1" numLanes="1" speed="13.89"/>
    <edge id="-E5" from="J1" to="J6" priority="-1" numLanes="1" speed="13.89"/>
    <edge id="-E6" from="J2" to="J7" priority="-1" numLanes="1" speed="13.89"/>
    <edge id="-E7" from="J8" to="J3" priority="-1" numLanes="1" speed="13.89"/>
    <edge id="-E8" from="J3" to="J9" priority="-1" numLanes="1" speed="13.89"/>
    <edge id="-E9" from="J3" to="J10" priority="-1" numLanes="1" speed="13.89"/>
    <edge id="E0" from="J0" to="J1" priority="-1" numLanes="1" speed="13.89"/>
    <edge id="E1" from="J2" to="J3" priority="-1" numLanes="1" speed="13.89"/>
    <edge id="E2" from="J1" to="J2" priority="-1" numLanes="1" speed="13.89"/>
    <edge id="E3" from="J1" to="J4" priority="-1" numLanes="1" speed="13.89"/>
    <edge id="E4" from="J5" to="J2" priority="-1" numLanes="1" speed="13.89"/>
    <edge id="E5" from="J6" to="J1" priority="-1" numLanes="1" speed="13.89"/>
    <edge id="E6" from="J7" to="J2" priority="-1" numLanes="1" speed="13.89"/>
    <edge id="E7" from="J3" to="J8" priority="-1" numLanes="1" speed="13.89"/>
    <edge id="E8" from="J9" to="J3" priority="-1" numLanes="1" speed="13.89"/>
    <edge id="E9" from="J10" to="J3" priority="-1" numLanes="1" speed="13.89"/>
</edges>
