<?xml version="1.0" encoding="UTF-8"?>

<!-- generated on 2022-11-14 22:30:02 by Eclipse SUMO netedit Version 1.15.0
-->

<routes xmlns:xsi="http://www.w3.org/2001/XMLSchema-instance" xsi:noNamespaceSchemaLocation="http://sumo.dlr.de/xsd/routes_file.xsd">
    <!-- VTypes -->
    <vType id="DEFAULT_VEHTYPE" color="invisible"/>
    <!-- Routes -->
    <route id="r_0" edges="E0 -E5"/>
    <route id="r_1" edges="E0 E2 -E6"/>
    <route id="r_2" edges="E0 E2 E1 -E9"/>
    <route id="r_3" edges="E0 E2 E1 E7"/>
    <route id="r_4" edges="-E7 -E8"/>
    <route id="r_5" edges="-E7 -E1 -E4"/>
    <route id="r_6" edges="-E7 -E1 -E2 E3"/>
    <route id="r_7" edges="-E7 -E1 -E2 -E0"/>
    <!-- Vehicles, persons and containers (sorted by depart) -->
    <vehicle id="v_0" depart="0.00" color="red" route="r_3"/>
    <vehicle id="v_1" depart="0.00" color="0,75,255" route="r_7"/>
</routes>
