<?xml version="1.0" encoding="UTF-8"?>

<!-- generated on 2023-01-30 13:52:22 by Eclipse SUMO netedit Version 1.15.0
<configuration xmlns:xsi="http://www.w3.org/2001/XMLSchema-instance" xsi:noNamespaceSchemaLocation="http://sumo.dlr.de/xsd/netconvertConfiguration.xsd">

    <input>
        <sumo-net-file value="C:\Users\bking\Documents\Uni\Research\Thesis\Simulations\Variable Light Times\networkCustom.net.xml"/>
    </input>

    <output>
        <output-file value="C:\Users\bking\Documents\Uni\Research\Thesis\Simulations\Variable Light Times\networkCustom.net.xml"/>
    </output>

    <processing>
        <geometry.min-radius.fix.railways value="false"/>
        <geometry.max-grade.fix value="false"/>
        <offset.disable-normalization value="true"/>
        <lefthand value="0"/>
    </processing>

    <junctions>
        <no-turnarounds value="true"/>
        <junctions.corner-detail value="5"/>
        <junctions.limit-turn-speed value="5.50"/>
        <rectangular-lane-cut value="0"/>
    </junctions>

    <pedestrian>
        <walkingareas value="0"/>
    </pedestrian>

</configuration>
-->

<nodes version="1.9" xmlns:xsi="http://www.w3.org/2001/XMLSchema-instance" xsi:noNamespaceSchemaLocation="http://sumo.dlr.de/xsd/nodes_file.xsd">
    <location netOffset="0.00,0.00" convBoundary="0.00,0.00,17000.00,0.00" origBoundary="-10000000000.00,-10000000000.00,10000000000.00,10000000000.00" projParameter="!"/>

    <node id="J0" x="0.00" y="0.00" type="dead_end"/>
    <node id="J1" x="870.00" y="0.00" type="traffic_light" tl="J1"/>
    <node id="J10" x="10130.00" y="0.00" type="traffic_light" tl="J10"/>
    <node id="J11" x="10961.00" y="0.00" type="traffic_light" tl="J11"/>
    <node id="J12" x="11826.00" y="0.00" type="traffic_light" tl="J12"/>
    <node id="J13" x="13143.00" y="0.00" type="traffic_light" tl="J13"/>
    <node id="J14" x="14006.00" y="0.00" type="traffic_light" tl="J14"/>
    <node id="J15" x="15028.00" y="0.00" type="traffic_light" tl="J15"/>
    <node id="J16" x="16005.00" y="0.00" type="traffic_light" tl="J16"/>
    <node id="J17" x="17000.00" y="0.00" type="dead_end"/>
    <node id="J2" x="1831.57" y="0.00" type="traffic_light" tl="J2"/>
    <node id="J3" x="2939.00" y="0.00" type="traffic_light" tl="J4"/>
    <node id="J4" x="3879.00" y="0.00" type="traffic_light" tl="J2"/>
    <node id="J5" x="5003.00" y="0.00" type="traffic_light" tl="J5"/>
    <node id="J6" x="6190.00" y="0.00" type="traffic_light" tl="J6"/>
    <node id="J7" x="6866.00" y="0.00" type="traffic_light" tl="J7"/>
    <node id="J8" x="7976.00" y="0.00" type="traffic_light" tl="J8"/>
    <node id="J9" x="8952.00" y="0.00" type="traffic_light" tl="J9"/>
</nodes>
